* NGSPICE file created from Turn_Controller.ext - technology: scmos

* Black-box entry subcircuit for FILL abstract view
.subckt FILL gnd vdd
.ends

* Black-box entry subcircuit for AOI21X1 abstract view
.subckt AOI21X1 A B C gnd Y vdd
.ends

* Black-box entry subcircuit for OAI21X1 abstract view
.subckt OAI21X1 A B C gnd Y vdd
.ends

* Black-box entry subcircuit for INVX1 abstract view
.subckt INVX1 A gnd Y vdd
.ends

* Black-box entry subcircuit for AND2X2 abstract view
.subckt AND2X2 A B gnd Y vdd
.ends

* Black-box entry subcircuit for MUX2X1 abstract view
.subckt MUX2X1 A B S gnd Y vdd
.ends

* Black-box entry subcircuit for DFFPOSX1 abstract view
.subckt DFFPOSX1 Q CLK D gnd vdd
.ends

* Black-box entry subcircuit for NAND2X1 abstract view
.subckt NAND2X1 A B gnd Y vdd
.ends

* Black-box entry subcircuit for NOR2X1 abstract view
.subckt NOR2X1 A B gnd Y vdd
.ends

* Black-box entry subcircuit for AOI22X1 abstract view
.subckt AOI22X1 A B C D gnd Y vdd
.ends

* Black-box entry subcircuit for OAI22X1 abstract view
.subckt OAI22X1 A B C D gnd Y vdd
.ends

* Black-box entry subcircuit for BUFX4 abstract view
.subckt BUFX4 A gnd Y vdd
.ends

* Black-box entry subcircuit for INVX2 abstract view
.subckt INVX2 A gnd Y vdd
.ends

* Black-box entry subcircuit for OR2X2 abstract view
.subckt OR2X2 A B gnd Y vdd
.ends

* Black-box entry subcircuit for XNOR2X1 abstract view
.subckt XNOR2X1 A B gnd Y vdd
.ends

* Black-box entry subcircuit for INVX8 abstract view
.subckt INVX8 A gnd Y vdd
.ends

* Black-box entry subcircuit for NOR3X1 abstract view
.subckt NOR3X1 A B C gnd Y vdd
.ends

* Black-box entry subcircuit for CLKBUF1 abstract view
.subckt CLKBUF1 A gnd Y vdd
.ends

* Black-box entry subcircuit for NAND3X1 abstract view
.subckt NAND3X1 A B C gnd Y vdd
.ends

* Black-box entry subcircuit for XOR2X1 abstract view
.subckt XOR2X1 A B gnd Y vdd
.ends

* Black-box entry subcircuit for INVX4 abstract view
.subckt INVX4 A gnd Y vdd
.ends

* Black-box entry subcircuit for BUFX2 abstract view
.subckt BUFX2 A gnd Y vdd
.ends

.subckt Turn_Controller vdd gnd clock ped_Hori_Interrupt ped_Vert_Interrupt police_Interrupt
+ traffic_Street_0[0] traffic_Street_0[1] traffic_Street_0[2] traffic_Street_0[3]
+ traffic_Street_1[0] traffic_Street_1[1] traffic_Street_1[2] traffic_Street_1[3]
+ address[0] address[1] address[2] address[3] address[4] address[5] address[6] read_Write
+ enable street north_South[0] north_South[1] west_East[0] west_East[1] pedestrian_Hori_Street
+ pedestrian_Vert_Street traffic_Street[0] traffic_Street[1] traffic_Street[2] traffic_Street[3]
XFILL_9_6_0 gnd vdd FILL
XFILL_17_5_0 gnd vdd FILL
XAOI21X1_609 BUFX4_72/Y NOR2X1_231/B NOR2X1_721/Y gnd AOI21X1_609/Y vdd AOI21X1
XFILL_50_3_0 gnd vdd FILL
XFILL_41_3_0 gnd vdd FILL
XFILL_42_8_1 gnd vdd FILL
XOAI21X1_371 BUFX4_470/Y NAND2X1_2/Y NAND2X1_89/Y gnd DFFPOSX1_45/D vdd OAI21X1
XOAI21X1_382 BUFX4_294/Y BUFX4_299/Y NOR2X1_449/A gnd OAI21X1_382/Y vdd OAI21X1
XOAI21X1_360 BUFX4_188/Y BUFX4_197/Y NAND2X1_198/A gnd OAI21X1_361/C vdd OAI21X1
XINVX1_402 INVX1_402/A gnd INVX1_402/Y vdd INVX1
XAND2X2_5 AND2X2_5/A AND2X2_5/B gnd AND2X2_5/Y vdd AND2X2
XOAI21X1_393 BUFX4_448/Y BUFX4_294/Y NOR2X1_505/A gnd OAI21X1_393/Y vdd OAI21X1
XINVX1_413 INVX1_413/A gnd INVX1_413/Y vdd INVX1
XINVX1_424 INVX1_424/A gnd INVX1_424/Y vdd INVX1
XINVX1_435 INVX1_435/A gnd INVX1_435/Y vdd INVX1
XINVX1_457 INVX1_457/A gnd INVX1_457/Y vdd INVX1
XINVX1_446 INVX1_446/A gnd INVX1_446/Y vdd INVX1
XFILL_49_4_0 gnd vdd FILL
XFILL_32_3_0 gnd vdd FILL
XFILL_33_8_1 gnd vdd FILL
XAOI21X1_406 BUFX4_106/Y INVX1_362/Y BUFX4_265/Y gnd AOI21X1_406/Y vdd AOI21X1
XAOI21X1_439 INVX1_46/Y BUFX4_271/Y AOI21X1_439/C gnd AOI21X1_439/Y vdd AOI21X1
XAOI21X1_428 NAND2X1_7/A BUFX4_347/Y BUFX4_146/Y gnd OAI21X1_979/C vdd AOI21X1
XAOI21X1_417 BUFX4_283/Y INVX1_380/Y AOI21X1_417/C gnd AOI21X1_417/Y vdd AOI21X1
XFILL_23_3_0 gnd vdd FILL
XFILL_24_8_1 gnd vdd FILL
XFILL_7_9_1 gnd vdd FILL
XFILL_6_4_0 gnd vdd FILL
XMUX2X1_17 INVX1_22/Y BUFX4_442/Y MUX2X1_18/S gnd MUX2X1_17/Y vdd MUX2X1
XMUX2X1_28 INVX1_36/Y BUFX4_70/Y MUX2X1_29/S gnd MUX2X1_28/Y vdd MUX2X1
XMUX2X1_39 INVX1_49/Y MUX2X1_39/B MUX2X1_42/S gnd MUX2X1_39/Y vdd MUX2X1
XFILL_15_8_1 gnd vdd FILL
XFILL_14_3_0 gnd vdd FILL
XINVX1_210 INVX1_210/A gnd INVX1_210/Y vdd INVX1
XOAI21X1_190 BUFX4_136/Y BUFX4_127/Y OAI21X1_190/C gnd OAI21X1_191/C vdd OAI21X1
XDFFPOSX1_509 NOR2X1_721/A CLKBUF1_16/Y AOI21X1_609/Y gnd vdd DFFPOSX1
XINVX1_243 INVX1_243/A gnd INVX1_243/Y vdd INVX1
XINVX1_232 INVX1_232/A gnd INVX1_232/Y vdd INVX1
XINVX1_221 INVX1_221/A gnd INVX1_221/Y vdd INVX1
XINVX1_254 INVX1_254/A gnd INVX1_254/Y vdd INVX1
XINVX1_276 INVX1_276/A gnd INVX1_276/Y vdd INVX1
XINVX1_265 INVX1_265/A gnd INVX1_265/Y vdd INVX1
XINVX1_298 INVX1_298/A gnd INVX1_298/Y vdd INVX1
XINVX1_287 INVX1_287/A gnd INVX1_287/Y vdd INVX1
XNAND2X1_32 INVX8_12/A INVX4_5/Y gnd NAND2X1_32/Y vdd NAND2X1
XNAND2X1_21 NOR2X1_4/Y NOR2X1_10/Y gnd BUFX4_449/A vdd NAND2X1
XNAND2X1_10 NOR2X1_12/Y NOR2X1_6/Y gnd MUX2X1_18/S vdd NAND2X1
XNAND2X1_43 INVX8_18/A INVX4_2/Y gnd MUX2X1_70/S vdd NAND2X1
XNAND2X1_54 INVX8_19/A INVX4_5/Y gnd MUX2X1_81/S vdd NAND2X1
XNAND2X1_76 INVX8_25/A INVX4_3/Y gnd NAND2X1_76/Y vdd NAND2X1
XNAND2X1_65 INVX8_22/A INVX4_4/Y gnd MUX2X1_353/S vdd NAND2X1
XNAND2X1_98 traffic_Street_1[1] AOI21X1_7/B gnd NAND2X1_98/Y vdd NAND2X1
XNAND2X1_87 NAND2X1_87/A NAND2X1_2/Y gnd NAND2X1_87/Y vdd NAND2X1
XNOR2X1_601 NOR2X1_601/A BUFX4_225/Y gnd NOR2X1_601/Y vdd NOR2X1
XFILL_42_2 gnd vdd FILL
XNOR2X1_634 NOR2X1_634/A NOR2X1_65/Y gnd NOR2X1_634/Y vdd NOR2X1
XNOR2X1_623 BUFX4_39/Y MUX2X1_266/Y gnd NOR2X1_623/Y vdd NOR2X1
XNOR2X1_612 NOR2X1_204/A AND2X2_22/A gnd OAI22X1_87/D vdd NOR2X1
XNOR2X1_667 NOR2X1_667/A AOI21X1_72/B gnd NOR2X1_667/Y vdd NOR2X1
XNOR2X1_678 NOR2X1_678/A MUX2X1_94/S gnd NOR2X1_678/Y vdd NOR2X1
XNOR2X1_656 NOR2X1_656/A NOR2X1_107/B gnd NOR2X1_656/Y vdd NOR2X1
XNOR2X1_645 NOR2X1_645/A MUX2X1_55/S gnd NOR2X1_645/Y vdd NOR2X1
XFILL_35_1 gnd vdd FILL
XNOR2X1_689 NOR2X1_689/A MUX2X1_340/S gnd NOR2X1_689/Y vdd NOR2X1
XAOI21X1_203 NAND3X1_5/B NAND3X1_5/C NAND3X1_5/A gnd OAI21X1_441/A vdd AOI21X1
XAOI21X1_225 AOI21X1_225/A NOR2X1_341/B INVX1_198/Y gnd AOI21X1_225/Y vdd AOI21X1
XAOI21X1_214 NAND2X1_168/A INVX2_15/A INVX1_192/Y gnd OAI21X1_463/C vdd AOI21X1
XAOI21X1_236 NOR3X1_9/Y AND2X2_10/Y AOI21X1_235/Y gnd AOI21X1_236/Y vdd AOI21X1
XAOI21X1_258 BUFX4_237/Y NOR2X1_655/A BUFX4_85/Y gnd OAI21X1_569/C vdd AOI21X1
XAOI21X1_247 AND2X2_46/B INVX1_220/Y BUFX4_74/Y gnd AOI21X1_247/Y vdd AOI21X1
XAOI21X1_269 BUFX4_91/Y OAI21X1_588/Y AOI21X1_268/Y gnd OAI22X1_5/C vdd AOI21X1
XAOI22X1_30 AOI22X1_30/A AOI22X1_30/B AOI22X1_30/C BUFX4_171/Y gnd AOI22X1_30/Y vdd
+ AOI22X1
XOAI21X1_1420 BUFX4_119/Y BUFX4_408/Y OAI21X1_1116/B gnd OAI21X1_1421/C vdd OAI21X1
XOAI21X1_1431 NAND2X1_66/Y BUFX4_437/Y OAI21X1_1431/C gnd OAI21X1_1431/Y vdd OAI21X1
XOAI21X1_1442 BUFX4_60/Y BUFX4_435/Y OAI21X1_957/B gnd OAI21X1_1442/Y vdd OAI21X1
XOAI21X1_1464 NAND2X1_70/Y MUX2X1_29/B OAI21X1_1463/Y gnd OAI21X1_1464/Y vdd OAI21X1
XOAI21X1_1453 NAND2X1_69/Y MUX2X1_29/B OAI21X1_1453/C gnd DFFPOSX1_293/D vdd OAI21X1
XOAI21X1_1475 BUFX4_132/Y BUFX4_162/Y INVX1_319/A gnd OAI21X1_1475/Y vdd OAI21X1
XOAI21X1_1497 BUFX4_386/Y BUFX4_456/Y INVX1_265/A gnd OAI21X1_1498/C vdd OAI21X1
XOAI21X1_1486 BUFX4_66/Y NAND2X1_74/Y OAI21X1_1486/C gnd OAI21X1_1486/Y vdd OAI21X1
XDFFPOSX1_1027 INVX1_141/A CLKBUF1_57/Y MUX2X1_128/Y gnd vdd DFFPOSX1
XDFFPOSX1_1005 NOR2X1_518/A CLKBUF1_79/Y OAI21X1_293/Y gnd vdd DFFPOSX1
XDFFPOSX1_1016 NOR2X1_460/A CLKBUF1_60/Y AOI21X1_145/Y gnd vdd DFFPOSX1
XDFFPOSX1_1038 INVX1_445/A CLKBUF1_64/Y OAI21X1_319/Y gnd vdd DFFPOSX1
XDFFPOSX1_1049 NOR2X1_248/A CLKBUF1_67/Y AOI21X1_158/Y gnd vdd DFFPOSX1
XOAI22X1_3 OAI22X1_3/A INVX4_12/A OAI22X1_3/C OAI22X1_3/D gnd AND2X2_16/A vdd OAI22X1
XFILL_47_7_1 gnd vdd FILL
XFILL_46_2_0 gnd vdd FILL
XFILL_30_6_1 gnd vdd FILL
XDFFPOSX1_306 INVX1_250/A CLKBUF1_97/Y DFFPOSX1_306/D gnd vdd DFFPOSX1
XDFFPOSX1_317 INVX1_413/A CLKBUF1_48/Y MUX2X1_287/Y gnd vdd DFFPOSX1
XDFFPOSX1_328 INVX1_370/A CLKBUF1_74/Y DFFPOSX1_328/D gnd vdd DFFPOSX1
XDFFPOSX1_339 NOR2X1_656/A CLKBUF1_87/Y AOI21X1_544/Y gnd vdd DFFPOSX1
XFILL_37_2_0 gnd vdd FILL
XFILL_38_7_1 gnd vdd FILL
XBUFX4_382 BUFX4_384/A gnd INVX4_3/A vdd BUFX4
XBUFX4_360 BUFX4_26/Y gnd BUFX4_360/Y vdd BUFX4
XBUFX4_371 INVX8_14/Y gnd BUFX4_371/Y vdd BUFX4
XNOR2X1_442 OAI21X1_12/C BUFX4_246/Y gnd NOR2X1_442/Y vdd NOR2X1
XNOR2X1_420 BUFX4_112/Y NOR2X1_420/B gnd NOR2X1_420/Y vdd NOR2X1
XBUFX4_393 INVX8_28/Y gnd BUFX4_393/Y vdd BUFX4
XNOR2X1_431 NOR2X1_431/A BUFX4_331/Y gnd NOR2X1_431/Y vdd NOR2X1
XNOR2X1_464 NOR2X1_464/A AND2X2_22/A gnd OAI22X1_33/D vdd NOR2X1
XNOR2X1_475 NOR2X1_475/A NOR2X1_475/B gnd NOR2X1_475/Y vdd NOR2X1
XNOR2X1_453 NOR2X1_453/A BUFX4_287/Y gnd NOR2X1_453/Y vdd NOR2X1
XNOR2X1_486 NOR2X1_486/A BUFX4_350/Y gnd NOR2X1_486/Y vdd NOR2X1
XNOR2X1_497 BUFX4_39/Y MUX2X1_244/Y gnd NOR2X1_497/Y vdd NOR2X1
XFILL_20_1_0 gnd vdd FILL
XFILL_21_6_1 gnd vdd FILL
XOAI21X1_915 BUFX4_365/Y INVX1_346/Y OAI21X1_915/C gnd OAI21X1_915/Y vdd OAI21X1
XOAI21X1_904 BUFX4_345/Y OAI21X1_274/C BUFX4_152/Y gnd OAI22X1_35/C vdd OAI21X1
XOAI21X1_948 INVX1_372/Y BUFX4_274/Y NAND2X1_283/Y gnd MUX2X1_233/B vdd OAI21X1
XOAI21X1_926 INVX1_356/Y BUFX4_93/Y BUFX4_263/Y gnd OAI21X1_926/Y vdd OAI21X1
XOAI21X1_937 BUFX4_35/Y INVX1_365/Y BUFX4_328/Y gnd OAI21X1_937/Y vdd OAI21X1
XOAI21X1_959 OAI21X1_959/A AOI21X1_417/Y BUFX4_33/Y gnd AOI21X1_420/A vdd OAI21X1
XMUX2X1_404 INVX1_270/Y BUFX4_442/Y MUX2X1_406/S gnd MUX2X1_404/Y vdd MUX2X1
XDFFPOSX1_851 OAI21X1_686/A CLKBUF1_53/Y OAI21X1_177/Y gnd vdd DFFPOSX1
XOAI21X1_1283 BUFX4_124/Y BUFX4_43/Y OAI21X1_741/B gnd OAI21X1_1283/Y vdd OAI21X1
XOAI21X1_1272 NAND2X1_30/Y BUFX4_321/Y OAI21X1_1272/C gnd DFFPOSX1_241/D vdd OAI21X1
XDFFPOSX1_840 INVX1_98/A CLKBUF1_17/Y MUX2X1_85/Y gnd vdd DFFPOSX1
XOAI21X1_1261 OAI21X1_1260/Y AND2X2_55/Y BUFX4_32/Y gnd AOI21X1_511/C vdd OAI21X1
XOAI21X1_1250 OAI21X1_254/C BUFX4_244/Y AND2X2_33/B gnd OAI22X1_89/B vdd OAI21X1
XDFFPOSX1_873 NOR2X1_147/A CLKBUF1_32/Y AOI21X1_87/Y gnd vdd DFFPOSX1
XDFFPOSX1_862 NOR2X1_598/A CLKBUF1_32/Y AOI21X1_83/Y gnd vdd DFFPOSX1
XOAI21X1_1294 BUFX4_120/Y BUFX4_479/Y INVX1_350/A gnd OAI21X1_1294/Y vdd OAI21X1
XINVX2_12 INVX2_12/A gnd INVX2_12/Y vdd INVX2
XDFFPOSX1_884 OAI21X1_194/C CLKBUF1_33/Y OAI21X1_195/Y gnd vdd DFFPOSX1
XINVX2_23 INVX2_23/A gnd INVX2_23/Y vdd INVX2
XDFFPOSX1_895 NOR2X1_159/A CLKBUF1_45/Y AOI21X1_95/Y gnd vdd DFFPOSX1
XFILL_4_7_1 gnd vdd FILL
XFILL_28_2_0 gnd vdd FILL
XFILL_29_7_1 gnd vdd FILL
XFILL_3_2_0 gnd vdd FILL
XOAI21X1_19 BUFX4_450/Y BUFX4_293/Y INVX1_273/A gnd OAI21X1_19/Y vdd OAI21X1
XFILL_11_1_0 gnd vdd FILL
XFILL_12_6_1 gnd vdd FILL
XFILL_19_2_0 gnd vdd FILL
XDFFPOSX1_103 NOR2X1_452/A CLKBUF1_91/Y AOI21X1_190/Y gnd vdd DFFPOSX1
XDFFPOSX1_136 AND2X2_46/A CLKBUF1_100/Y OAI21X1_434/Y gnd vdd DFFPOSX1
XDFFPOSX1_125 NOR2X1_610/A CLKBUF1_100/Y OAI21X1_428/Y gnd vdd DFFPOSX1
XDFFPOSX1_114 INVX1_180/A CLKBUF1_77/Y MUX2X1_166/Y gnd vdd DFFPOSX1
XDFFPOSX1_158 INVX1_235/A CLKBUF1_41/Y MUX2X1_346/Y gnd vdd DFFPOSX1
XDFFPOSX1_147 NOR2X1_417/B CLKBUF1_24/Y DFFPOSX1_147/D gnd vdd DFFPOSX1
XDFFPOSX1_169 NOR2X1_545/A CLKBUF1_26/Y AOI21X1_569/Y gnd vdd DFFPOSX1
XNAND2X1_217 NOR2X1_164/A BUFX4_287/Y gnd NAND2X1_217/Y vdd NAND2X1
XNAND2X1_206 OAI21X1_429/C BUFX4_250/Y gnd OAI21X1_651/C vdd NAND2X1
XNAND2X1_239 BUFX4_289/Y NAND2X1_239/B gnd OAI21X1_774/C vdd NAND2X1
XNAND2X1_228 AND2X2_52/A NAND2X1_228/B gnd OAI21X1_724/C vdd NAND2X1
XBUFX4_190 INVX8_9/Y gnd BUFX4_190/Y vdd BUFX4
XNOR2X1_250 BUFX4_308/Y BUFX4_136/Y gnd NOR2X1_733/B vdd NOR2X1
XNOR2X1_261 NOR2X1_261/A NOR2X1_261/B gnd NOR2X1_261/Y vdd NOR2X1
XNOR2X1_272 NOR2X1_272/A MUX2X1_410/S gnd NOR2X1_272/Y vdd NOR2X1
XNOR2X1_283 NOR2X1_283/A NOR2X1_30/B gnd NOR2X1_283/Y vdd NOR2X1
XNOR2X1_294 NOR2X1_294/A NOR2X1_47/B gnd NOR2X1_294/Y vdd NOR2X1
XOAI21X1_712 BUFX4_370/Y NOR2X1_97/A BUFX4_156/Y gnd OAI21X1_714/B vdd OAI21X1
XOAI21X1_701 BUFX4_334/Y NOR2X1_66/A BUFX4_157/Y gnd OAI22X1_17/C vdd OAI21X1
XOAI21X1_723 AOI22X1_18/Y NOR2X1_624/A OAI21X1_723/C gnd OAI21X1_723/Y vdd OAI21X1
XOAI21X1_734 BUFX4_257/Y INVX1_299/Y AOI21X1_322/Y gnd OAI21X1_734/Y vdd OAI21X1
XOAI21X1_745 OAI21X1_744/Y AOI21X1_327/Y BUFX4_169/Y gnd OAI21X1_745/Y vdd OAI21X1
XOAI21X1_767 BUFX4_329/Y NOR2X1_679/A AOI21X1_337/Y gnd OAI21X1_767/Y vdd OAI21X1
XOAI21X1_756 BUFX4_367/Y OAI21X1_756/B OAI21X1_756/C gnd OAI21X1_757/C vdd OAI21X1
XOAI21X1_789 OAI21X1_788/Y AND2X2_30/Y OAI21X1_787/Y gnd MUX2X1_215/B vdd OAI21X1
XOAI21X1_778 BUFX4_223/Y OAI21X1_778/B AOI21X1_340/Y gnd OAI21X1_778/Y vdd OAI21X1
XMUX2X1_223 MUX2X1_223/A MUX2X1_222/Y BUFX4_51/Y gnd MUX2X1_223/Y vdd MUX2X1
XMUX2X1_212 MUX2X1_212/A MUX2X1_212/B BUFX4_76/Y gnd MUX2X1_213/B vdd MUX2X1
XMUX2X1_201 MUX2X1_201/A MUX2X1_201/B BUFX4_88/Y gnd MUX2X1_203/B vdd MUX2X1
XOAI21X1_1091 AND2X2_29/A OAI21X1_1091/B BUFX4_88/Y gnd OAI22X1_49/B vdd OAI21X1
XMUX2X1_256 MUX2X1_256/A OAI22X1_49/Y BUFX4_41/Y gnd MUX2X1_256/Y vdd MUX2X1
XMUX2X1_234 MUX2X1_233/Y MUX2X1_234/B INVX8_30/A gnd MUX2X1_234/Y vdd MUX2X1
XOAI21X1_1080 INVX1_408/Y BUFX4_260/Y BUFX4_85/Y gnd AOI21X1_460/C vdd OAI21X1
XMUX2X1_245 NOR2X1_166/A MUX2X1_245/B INVX8_30/A gnd MUX2X1_245/Y vdd MUX2X1
XDFFPOSX1_670 NOR2X1_43/A CLKBUF1_4/Y AOI21X1_18/Y gnd vdd DFFPOSX1
XMUX2X1_278 INVX1_447/Y BUFX4_317/Y MUX2X1_42/S gnd MUX2X1_278/Y vdd MUX2X1
XDFFPOSX1_692 INVX1_43/A CLKBUF1_94/Y MUX2X1_35/Y gnd vdd DFFPOSX1
XMUX2X1_267 BUFX4_421/Y INVX1_304/Y NOR2X1_54/Y gnd MUX2X1_267/Y vdd MUX2X1
XMUX2X1_289 BUFX4_318/Y INVX1_414/Y MUX2X1_50/S gnd MUX2X1_289/Y vdd MUX2X1
XDFFPOSX1_681 INVX1_39/A CLKBUF1_51/Y MUX2X1_31/Y gnd vdd DFFPOSX1
XFILL_44_5_1 gnd vdd FILL
XFILL_43_0_0 gnd vdd FILL
XBUFX4_41 BUFX4_33/A gnd BUFX4_41/Y vdd BUFX4
XBUFX4_52 BUFX4_54/A gnd BUFX4_52/Y vdd BUFX4
XBUFX4_30 BUFX4_28/A gnd BUFX4_30/Y vdd BUFX4
XBUFX4_74 BUFX4_11/Y gnd BUFX4_74/Y vdd BUFX4
XBUFX4_96 BUFX4_14/Y gnd BUFX4_96/Y vdd BUFX4
XBUFX4_63 INVX8_4/Y gnd BUFX4_63/Y vdd BUFX4
XBUFX4_85 BUFX4_85/A gnd BUFX4_85/Y vdd BUFX4
XFILL_34_0_0 gnd vdd FILL
XFILL_35_5_1 gnd vdd FILL
XOR2X2_4 traffic_Street_0[0] traffic_Street_0[1] gnd OR2X2_4/Y vdd OR2X2
XXNOR2X1_6 XOR2X1_3/A XNOR2X1_6/B gnd XNOR2X1_6/Y vdd XNOR2X1
XFILL_1_5_1 gnd vdd FILL
XFILL_25_0_0 gnd vdd FILL
XFILL_26_5_1 gnd vdd FILL
XFILL_0_0_0 gnd vdd FILL
XINVX8_11 traffic_Street_1[0] gnd INVX8_11/Y vdd INVX8
XINVX8_33 INVX8_33/A gnd INVX8_33/Y vdd INVX8
XINVX8_22 INVX8_22/A gnd INVX8_22/Y vdd INVX8
XINVX1_6 INVX1_6/A gnd INVX1_6/Y vdd INVX1
XOAI21X1_520 OAI21X1_520/A NOR2X1_335/Y AOI22X1_7/Y gnd OAI21X1_520/Y vdd OAI21X1
XOAI21X1_531 INVX1_212/Y XNOR2X1_5/B NAND2X1_122/B gnd OAI21X1_531/Y vdd OAI21X1
XOAI21X1_553 BUFX4_342/Y NOR2X1_640/A AOI21X1_248/Y gnd NAND3X1_71/C vdd OAI21X1
XOAI21X1_542 INVX1_214/Y NOR3X1_10/Y OAI21X1_541/Y gnd AOI21X1_246/C vdd OAI21X1
XOAI21X1_564 INVX1_228/Y BUFX4_232/Y OAI21X1_564/C gnd MUX2X1_177/A vdd OAI21X1
XOAI21X1_575 INVX1_237/Y BUFX4_244/Y BUFX4_88/Y gnd AOI21X1_261/C vdd OAI21X1
XOAI21X1_586 OAI21X1_585/Y NOR2X1_372/Y BUFX4_39/Y gnd OAI22X1_5/A vdd OAI21X1
XOAI21X1_597 INVX1_256/Y BUFX4_266/Y BUFX4_97/Y gnd OAI21X1_598/B vdd OAI21X1
XFILL_9_6_1 gnd vdd FILL
XFILL_8_1_0 gnd vdd FILL
XFILL_16_0_0 gnd vdd FILL
XFILL_17_5_1 gnd vdd FILL
XFILL_50_3_1 gnd vdd FILL
XFILL_41_3_1 gnd vdd FILL
XOAI21X1_350 INVX4_3/A BUFX4_199/Y OAI21X1_350/C gnd OAI21X1_351/C vdd OAI21X1
XOAI21X1_383 OAI21X1_11/A BUFX4_173/Y OAI21X1_382/Y gnd OAI21X1_383/Y vdd OAI21X1
XOAI21X1_361 MUX2X1_39/B NAND2X1_85/Y OAI21X1_361/C gnd DFFPOSX1_38/D vdd OAI21X1
XOAI21X1_372 BUFX4_209/Y NAND2X1_6/B NAND2X1_90/Y gnd DFFPOSX1_50/D vdd OAI21X1
XAND2X2_6 AND2X2_6/A AND2X2_6/B gnd NOR3X1_4/C vdd AND2X2
XOAI21X1_394 OAI21X1_24/A BUFX4_372/Y OAI21X1_393/Y gnd DFFPOSX1_92/D vdd OAI21X1
XINVX1_425 INVX1_425/A gnd INVX1_425/Y vdd INVX1
XINVX1_403 INVX1_403/A gnd INVX1_403/Y vdd INVX1
XINVX1_414 INVX1_414/A gnd INVX1_414/Y vdd INVX1
XINVX1_447 INVX1_447/A gnd INVX1_447/Y vdd INVX1
XINVX1_436 INVX1_436/A gnd INVX1_436/Y vdd INVX1
XINVX1_458 INVX1_458/A gnd INVX1_458/Y vdd INVX1
XFILL_49_4_1 gnd vdd FILL
XFILL_32_3_1 gnd vdd FILL
XAOI21X1_407 BUFX4_35/Y AOI21X1_407/B OAI21X1_936/Y gnd OAI22X1_39/B vdd AOI21X1
XAOI21X1_418 BUFX4_340/Y INVX1_381/Y AOI21X1_418/C gnd OAI21X1_962/A vdd AOI21X1
XAOI21X1_429 NAND2X1_363/A BUFX4_347/Y BUFX4_82/Y gnd OAI21X1_980/C vdd AOI21X1
XFILL_23_3_1 gnd vdd FILL
XFILL_6_4_1 gnd vdd FILL
XMUX2X1_18 INVX1_24/Y MUX2X1_18/B MUX2X1_18/S gnd MUX2X1_18/Y vdd MUX2X1
XMUX2X1_29 INVX1_37/Y MUX2X1_29/B MUX2X1_29/S gnd MUX2X1_29/Y vdd MUX2X1
XFILL_14_3_1 gnd vdd FILL
XAOI22X1_1 AND2X2_2/B AND2X2_2/A AOI22X1_1/C AOI22X1_1/D gnd AOI22X1_1/Y vdd AOI22X1
XINVX1_200 INVX1_200/A gnd INVX1_200/Y vdd INVX1
XOAI21X1_180 BUFX4_385/Y BUFX4_129/Y INVX1_393/A gnd OAI21X1_180/Y vdd OAI21X1
XOAI21X1_191 BUFX4_467/Y NAND2X1_58/Y OAI21X1_191/C gnd OAI21X1_191/Y vdd OAI21X1
XINVX1_211 INVX1_211/A gnd INVX1_211/Y vdd INVX1
XINVX1_244 INVX1_244/A gnd INVX1_244/Y vdd INVX1
XINVX1_222 INVX1_222/A gnd INVX1_222/Y vdd INVX1
XINVX1_233 INVX1_233/A gnd INVX1_233/Y vdd INVX1
XINVX1_255 INVX1_255/A gnd INVX1_255/Y vdd INVX1
XINVX1_266 INVX1_266/A gnd INVX1_266/Y vdd INVX1
XINVX1_277 INVX1_277/A gnd INVX1_277/Y vdd INVX1
XINVX1_299 INVX1_299/A gnd INVX1_299/Y vdd INVX1
XINVX1_288 INVX1_288/A gnd INVX1_288/Y vdd INVX1
XNAND2X1_11 NAND2X1_11/A OAI21X1_7/B gnd OAI21X1_6/C vdd NAND2X1
XNAND2X1_22 INVX8_5/A INVX4_4/Y gnd OAI21X1_24/A vdd NAND2X1
XNAND2X1_33 traffic_Street_1[1] NOR2X1_76/B gnd NAND2X1_33/Y vdd NAND2X1
XNAND2X1_55 INVX8_19/A INVX8_9/A gnd MUX2X1_84/S vdd NAND2X1
XNAND2X1_77 INVX8_25/A INVX8_8/A gnd NAND2X1_77/Y vdd NAND2X1
XNAND2X1_44 INVX8_18/A INVX8_6/A gnd NAND2X1_44/Y vdd NAND2X1
XNAND2X1_66 INVX8_22/A INVX4_5/Y gnd NAND2X1_66/Y vdd NAND2X1
XNAND2X1_99 MUX2X1_57/A NOR2X1_299/Y gnd NOR2X1_300/B vdd NAND2X1
XNAND2X1_88 NOR2X1_509/A NAND2X1_2/Y gnd NAND2X1_88/Y vdd NAND2X1
XNOR2X1_635 NOR2X1_635/A NOR2X1_65/Y gnd NOR2X1_635/Y vdd NOR2X1
XNOR2X1_602 NOR2X1_269/A BUFX4_333/Y gnd NOR2X1_602/Y vdd NOR2X1
XNOR2X1_624 NOR2X1_624/A OAI22X1_94/Y gnd NOR2X1_624/Y vdd NOR2X1
XNOR2X1_613 NOR2X1_613/A BUFX4_341/Y gnd NOR2X1_613/Y vdd NOR2X1
XNOR2X1_668 NOR2X1_668/A AOI21X1_72/B gnd NOR2X1_668/Y vdd NOR2X1
XNOR2X1_657 NOR2X1_657/A NOR2X1_107/B gnd NOR2X1_657/Y vdd NOR2X1
XNOR2X1_646 NOR2X1_646/A NOR2X1_92/B gnd NOR2X1_646/Y vdd NOR2X1
XFILL_35_2 gnd vdd FILL
XNOR2X1_679 NOR2X1_679/A MUX2X1_94/S gnd NOR2X1_679/Y vdd NOR2X1
XFILL_28_1 gnd vdd FILL
XAOI21X1_204 NAND3X1_5/B NAND3X1_5/C AND2X2_3/B gnd NAND2X1_106/B vdd AOI21X1
XAOI21X1_215 NAND2X1_117/Y AOI21X1_215/B AOI21X1_215/C gnd OR2X2_5/B vdd AOI21X1
XAOI21X1_237 AOI22X1_6/Y AOI21X1_237/B INVX1_207/Y gnd AOI21X1_237/Y vdd AOI21X1
XAOI21X1_226 AND2X2_9/Y OAI21X1_483/Y NOR3X1_13/B gnd NAND3X1_54/C vdd AOI21X1
XAOI21X1_248 BUFX4_342/Y INVX1_221/Y BUFX4_148/Y gnd AOI21X1_248/Y vdd AOI21X1
XAOI22X1_31 AOI22X1_31/A AOI22X1_31/B AOI22X1_31/C INVX8_33/A gnd AOI22X1_31/Y vdd
+ AOI22X1
XAOI21X1_259 BUFX4_48/Y AOI22X1_12/Y INVX8_33/A gnd AOI22X1_14/A vdd AOI21X1
XAOI22X1_20 AOI22X1_20/A AOI22X1_20/B BUFX4_168/Y AOI22X1_20/D gnd AOI22X1_20/Y vdd
+ AOI22X1
XOAI21X1_1421 NAND2X1_62/Y BUFX4_320/Y OAI21X1_1421/C gnd OAI21X1_1421/Y vdd OAI21X1
XOAI21X1_1410 BUFX4_449/Y BUFX4_404/Y NAND2X1_281/B gnd OAI21X1_1411/C vdd OAI21X1
XOAI21X1_1432 BUFX4_123/Y BUFX4_141/Y INVX1_306/A gnd OAI21X1_1432/Y vdd OAI21X1
XOAI21X1_1443 BUFX4_70/Y NAND2X1_68/Y OAI21X1_1442/Y gnd DFFPOSX1_284/D vdd OAI21X1
XOAI21X1_1465 BUFX4_451/Y BUFX4_162/Y INVX1_252/A gnd OAI21X1_1465/Y vdd OAI21X1
XOAI21X1_1454 INVX1_258/Y NOR2X1_188/B NAND2X1_358/Y gnd OAI21X1_1454/Y vdd OAI21X1
XOAI21X1_1498 NAND2X1_76/Y BUFX4_440/Y OAI21X1_1498/C gnd OAI21X1_1498/Y vdd OAI21X1
XOAI21X1_1476 BUFX4_429/Y NAND2X1_73/Y OAI21X1_1475/Y gnd OAI21X1_1476/Y vdd OAI21X1
XOAI21X1_1487 BUFX4_188/Y BUFX4_161/Y AND2X2_52/B gnd OAI21X1_1488/C vdd OAI21X1
XDFFPOSX1_1006 NOR2X1_621/A CLKBUF1_18/Y OAI21X1_295/Y gnd vdd DFFPOSX1
XDFFPOSX1_1017 NOR2X1_230/A CLKBUF1_67/Y AOI21X1_146/Y gnd vdd DFFPOSX1
XDFFPOSX1_1028 INVX1_142/A CLKBUF1_34/Y MUX2X1_129/Y gnd vdd DFFPOSX1
XDFFPOSX1_1039 NOR2X1_241/A CLKBUF1_36/Y AOI21X1_152/Y gnd vdd DFFPOSX1
XOAI22X1_4 OAI22X1_4/A OAI22X1_4/B OAI22X1_4/C OAI22X1_4/D gnd OAI22X1_4/Y vdd OAI22X1
XFILL_46_2_1 gnd vdd FILL
XDFFPOSX1_307 INVX1_312/A CLKBUF1_56/Y DFFPOSX1_307/D gnd vdd DFFPOSX1
XDFFPOSX1_329 NOR2X1_539/B CLKBUF1_48/Y AOI21X1_551/Y gnd vdd DFFPOSX1
XDFFPOSX1_318 OAI21X1_590/B CLKBUF1_17/Y DFFPOSX1_318/D gnd vdd DFFPOSX1
XFILL_37_2_1 gnd vdd FILL
XBUFX4_372 INVX8_14/Y gnd BUFX4_372/Y vdd BUFX4
XBUFX4_361 BUFX4_29/Y gnd BUFX4_361/Y vdd BUFX4
XBUFX4_350 BUFX4_26/Y gnd BUFX4_350/Y vdd BUFX4
XNOR2X1_410 NOR2X1_410/A BUFX4_339/Y gnd OAI22X1_19/A vdd NOR2X1
XNOR2X1_443 NOR2X1_443/A BUFX4_247/Y gnd NOR2X1_443/Y vdd NOR2X1
XBUFX4_394 INVX8_28/Y gnd BUFX4_394/Y vdd BUFX4
XNOR2X1_432 NOR2X1_720/A BUFX4_155/Y gnd NOR2X1_432/Y vdd NOR2X1
XNOR2X1_421 BUFX4_277/Y NOR2X1_421/B gnd NOR2X1_421/Y vdd NOR2X1
XBUFX4_383 BUFX4_384/A gnd BUFX4_383/Y vdd BUFX4
XNOR2X1_465 INVX1_128/A BUFX4_340/Y gnd OAI22X1_33/A vdd NOR2X1
XNOR2X1_476 BUFX4_41/Y NOR2X1_475/Y gnd NOR2X1_476/Y vdd NOR2X1
XNOR2X1_454 NOR2X1_454/A BUFX4_350/Y gnd NOR2X1_454/Y vdd NOR2X1
XNOR2X1_487 BUFX4_34/Y NOR2X1_487/B gnd NOR2X1_487/Y vdd NOR2X1
XNOR2X1_498 AND2X2_23/A NOR2X1_498/B gnd NOR2X1_498/Y vdd NOR2X1
XOAI21X1_916 INVX1_348/Y BUFX4_253/Y BUFX4_88/Y gnd OAI21X1_916/Y vdd OAI21X1
XOAI21X1_905 NOR2X1_219/A BUFX4_244/Y BUFX4_84/Y gnd OAI22X1_35/B vdd OAI21X1
XOAI21X1_949 INVX1_373/Y BUFX4_276/Y NAND2X1_284/Y gnd MUX2X1_233/A vdd OAI21X1
XFILL_20_1_1 gnd vdd FILL
XOAI21X1_927 INVX1_357/Y BUFX4_96/Y BUFX4_353/Y gnd OAI21X1_928/A vdd OAI21X1
XOAI21X1_938 OAI21X1_937/Y NOR2X1_477/Y BUFX4_147/Y gnd OAI22X1_39/A vdd OAI21X1
XMUX2X1_405 INVX1_328/Y BUFX4_426/Y MUX2X1_406/S gnd MUX2X1_405/Y vdd MUX2X1
XOAI21X1_1240 BUFX4_364/Y NOR2X1_297/A BUFX4_149/Y gnd OAI22X1_85/C vdd OAI21X1
XOAI21X1_1251 BUFX4_344/Y NOR2X1_200/A BUFX4_151/Y gnd OAI22X1_90/C vdd OAI21X1
XDFFPOSX1_830 NOR2X1_593/A CLKBUF1_2/Y OAI21X1_167/Y gnd vdd DFFPOSX1
XDFFPOSX1_841 INVX1_99/A CLKBUF1_26/Y MUX2X1_86/Y gnd vdd DFFPOSX1
XOAI21X1_1273 BUFX4_448/Y BUFX4_43/Y INVX1_223/A gnd OAI21X1_1274/C vdd OAI21X1
XOAI21X1_1262 NOR2X1_623/Y AOI21X1_511/Y BUFX4_202/Y gnd NAND3X1_82/C vdd OAI21X1
XOAI21X1_1284 NAND2X1_32/Y BUFX4_421/Y OAI21X1_1283/Y gnd DFFPOSX1_143/D vdd OAI21X1
XDFFPOSX1_863 OAI21X1_184/C CLKBUF1_31/Y OAI21X1_185/Y gnd vdd DFFPOSX1
XDFFPOSX1_874 NOR2X1_599/A CLKBUF1_93/Y AOI21X1_88/Y gnd vdd DFFPOSX1
XOAI21X1_1295 NAND2X1_36/Y BUFX4_63/Y OAI21X1_1294/Y gnd OAI21X1_1295/Y vdd OAI21X1
XDFFPOSX1_852 NAND2X1_259/A CLKBUF1_85/Y OAI21X1_179/Y gnd vdd DFFPOSX1
XINVX2_24 INVX2_24/A gnd INVX2_24/Y vdd INVX2
XINVX2_13 BUFX2_3/A gnd INVX2_13/Y vdd INVX2
XDFFPOSX1_896 NOR2X1_160/A CLKBUF1_33/Y AOI21X1_96/Y gnd vdd DFFPOSX1
XDFFPOSX1_885 INVX1_397/A CLKBUF1_12/Y OAI21X1_197/Y gnd vdd DFFPOSX1
XFILL_3_2_1 gnd vdd FILL
XFILL_28_2_1 gnd vdd FILL
XFILL_40_9_0 gnd vdd FILL
XFILL_11_1_1 gnd vdd FILL
XAOI21X1_590 BUFX4_420/Y NOR2X1_188/B NOR2X1_702/Y gnd AOI21X1_590/Y vdd AOI21X1
XFILL_19_2_1 gnd vdd FILL
XFILL_31_9_0 gnd vdd FILL
XDFFPOSX1_104 NOR2X1_288/A CLKBUF1_30/Y AOI21X1_191/Y gnd vdd DFFPOSX1
XDFFPOSX1_115 INVX1_181/A CLKBUF1_4/Y MUX2X1_167/Y gnd vdd DFFPOSX1
XDFFPOSX1_126 NOR2X1_294/A CLKBUF1_81/Y AOI21X1_197/Y gnd vdd DFFPOSX1
XDFFPOSX1_137 NOR2X1_611/A CLKBUF1_87/Y OAI21X1_436/Y gnd vdd DFFPOSX1
XDFFPOSX1_148 NOR2X1_474/B CLKBUF1_28/Y DFFPOSX1_148/D gnd vdd DFFPOSX1
XDFFPOSX1_159 NOR2X1_693/A CLKBUF1_39/Y AOI21X1_581/Y gnd vdd DFFPOSX1
XNAND2X1_207 NOR2X1_251/A AND2X2_27/A gnd OAI21X1_655/C vdd NAND2X1
XNAND2X1_218 NOR2X1_154/A BUFX4_289/Y gnd NAND2X1_218/Y vdd NAND2X1
XNAND2X1_229 BUFX4_247/Y NOR2X1_647/A gnd OAI21X1_725/C vdd NAND2X1
XBUFX4_180 INVX8_13/Y gnd BUFX4_180/Y vdd BUFX4
XBUFX4_191 INVX8_9/Y gnd BUFX4_191/Y vdd BUFX4
XNOR2X1_251 NOR2X1_251/A NOR2X1_733/B gnd NOR2X1_251/Y vdd NOR2X1
XNOR2X1_240 BUFX4_311/Y BUFX4_56/Y gnd NOR2X1_727/B vdd NOR2X1
XNOR2X1_273 NOR2X1_273/A MUX2X1_410/S gnd NOR2X1_273/Y vdd NOR2X1
XNOR2X1_284 NOR2X1_284/A NOR2X1_30/B gnd NOR2X1_284/Y vdd NOR2X1
XNOR2X1_262 NOR2X1_262/A NOR2X1_261/B gnd NOR2X1_262/Y vdd NOR2X1
XFILL_22_9_0 gnd vdd FILL
XNOR2X1_295 NOR2X1_295/A NOR2X1_47/B gnd NOR2X1_295/Y vdd NOR2X1
XOAI21X1_713 INVX1_73/A BUFX4_362/Y OAI21X1_713/C gnd OAI21X1_714/C vdd OAI21X1
XOAI21X1_702 OAI21X1_83/C BUFX4_229/Y BUFX4_93/Y gnd OAI22X1_17/B vdd OAI21X1
XOAI21X1_724 INVX1_291/Y BUFX4_246/Y OAI21X1_724/C gnd MUX2X1_208/B vdd OAI21X1
XOAI21X1_735 INVX1_300/Y BUFX4_259/Y AND2X2_33/B gnd OAI21X1_736/A vdd OAI21X1
XOAI21X1_746 OAI21X1_746/A AOI21X1_328/Y BUFX4_390/Y gnd OAI21X1_746/Y vdd OAI21X1
XOAI21X1_757 NOR2X1_421/Y OAI21X1_757/B OAI21X1_757/C gnd OAI21X1_757/Y vdd OAI21X1
XOAI21X1_768 NOR2X1_427/Y OAI21X1_768/B OAI21X1_767/Y gnd OAI21X1_768/Y vdd OAI21X1
XOAI21X1_779 BUFX4_224/Y NOR2X1_714/A BUFX4_79/Y gnd OAI21X1_779/Y vdd OAI21X1
XMUX2X1_202 MUX2X1_202/A MUX2X1_202/B BUFX4_89/Y gnd MUX2X1_202/Y vdd MUX2X1
XMUX2X1_213 MUX2X1_213/A MUX2X1_213/B BUFX4_415/Y gnd MUX2X1_213/Y vdd MUX2X1
XOAI21X1_1081 BUFX4_32/Y OAI21X1_1078/Y NAND2X1_331/Y gnd OAI21X1_1081/Y vdd OAI21X1
XMUX2X1_224 MUX2X1_224/A MUX2X1_224/B BUFX4_116/Y gnd AND2X2_35/A vdd MUX2X1
XMUX2X1_235 MUX2X1_235/A MUX2X1_235/B BUFX4_37/Y gnd MUX2X1_235/Y vdd MUX2X1
XMUX2X1_246 MUX2X1_246/A MUX2X1_246/B BUFX4_410/Y gnd NOR2X1_498/B vdd MUX2X1
XOAI21X1_1070 AOI21X1_456/Y AOI21X1_457/Y BUFX4_33/Y gnd AND2X2_48/A vdd OAI21X1
XDFFPOSX1_671 INVX1_275/A CLKBUF1_96/Y OAI21X1_52/Y gnd vdd DFFPOSX1
XDFFPOSX1_660 OAI21X1_45/C CLKBUF1_88/Y OAI21X1_46/Y gnd vdd DFFPOSX1
XMUX2X1_268 BUFX4_321/Y INVX1_412/Y NOR2X1_54/Y gnd MUX2X1_268/Y vdd MUX2X1
XDFFPOSX1_693 INVX1_44/A CLKBUF1_70/Y MUX2X1_36/Y gnd vdd DFFPOSX1
XOAI21X1_1092 INVX1_413/Y BUFX4_89/Y BUFX4_330/Y gnd AOI21X1_466/C vdd OAI21X1
XMUX2X1_257 MUX2X1_257/A MUX2X1_257/B BUFX4_112/Y gnd AND2X2_50/A vdd MUX2X1
XDFFPOSX1_682 INVX1_40/A CLKBUF1_100/Y MUX2X1_32/Y gnd vdd DFFPOSX1
XMUX2X1_279 BUFX4_445/Y INVX1_221/Y MUX2X1_45/S gnd MUX2X1_279/Y vdd MUX2X1
XFILL_43_0_1 gnd vdd FILL
XFILL_13_9_0 gnd vdd FILL
XBUFX4_20 address[0] gnd BUFX4_20/Y vdd BUFX4
XBUFX4_42 BUFX4_46/A gnd BUFX4_42/Y vdd BUFX4
XBUFX4_31 BUFX4_33/A gnd BUFX4_31/Y vdd BUFX4
XBUFX4_53 BUFX4_54/A gnd BUFX4_53/Y vdd BUFX4
XBUFX4_64 INVX8_4/Y gnd BUFX4_64/Y vdd BUFX4
XBUFX4_86 BUFX4_82/A gnd BUFX4_86/Y vdd BUFX4
XBUFX4_75 BUFX4_75/A gnd INVX8_32/A vdd BUFX4
XBUFX4_97 BUFX4_14/Y gnd BUFX4_97/Y vdd BUFX4
XFILL_34_0_1 gnd vdd FILL
XFILL_10_1 gnd vdd FILL
XOR2X2_5 OR2X2_5/A OR2X2_5/B gnd OR2X2_5/Y vdd OR2X2
XXNOR2X1_7 XNOR2X1_7/A XNOR2X1_7/B gnd XNOR2X1_7/Y vdd XNOR2X1
XFILL_25_0_1 gnd vdd FILL
XFILL_0_0_1 gnd vdd FILL
XINVX8_12 INVX8_12/A gnd BUFX4_46/A vdd INVX8
XINVX8_23 INVX8_23/A gnd INVX8_23/Y vdd INVX8
XINVX1_7 INVX1_7/A gnd INVX1_7/Y vdd INVX1
XOAI21X1_510 NAND3X1_50/Y NOR2X1_334/B INVX1_208/Y gnd OAI21X1_510/Y vdd OAI21X1
XOAI21X1_521 XNOR2X1_4/B OR2X2_6/A AND2X2_10/Y gnd OAI21X1_522/C vdd OAI21X1
XOAI21X1_532 OR2X2_1/Y traffic_Street_1[0] traffic_Street_1[3] gnd NAND2X1_161/A vdd
+ OAI21X1
XOAI21X1_543 INVX4_12/Y INVX1_213/Y OAI21X1_497/A gnd INVX1_215/A vdd OAI21X1
XOAI21X1_554 BUFX4_352/Y NOR2X1_625/A BUFX4_157/Y gnd NOR2X1_364/B vdd OAI21X1
XOAI21X1_565 NOR2X1_366/Y NOR2X1_367/Y BUFX4_328/Y gnd OAI21X1_565/Y vdd OAI21X1
XOAI21X1_576 BUFX4_337/Y INVX1_239/Y BUFX4_151/Y gnd OAI21X1_577/A vdd OAI21X1
XOAI21X1_587 BUFX4_356/Y OAI21X1_587/B BUFX4_154/Y gnd AOI21X1_268/C vdd OAI21X1
XOAI21X1_598 NOR2X1_373/Y OAI21X1_598/B OAI21X1_598/C gnd MUX2X1_181/A vdd OAI21X1
XDFFPOSX1_490 INVX1_432/A CLKBUF1_65/Y MUX2X1_380/Y gnd vdd DFFPOSX1
XFILL_8_1_1 gnd vdd FILL
XFILL_45_8_0 gnd vdd FILL
XFILL_16_0_1 gnd vdd FILL
XFILL_36_8_0 gnd vdd FILL
XFILL_2_8_0 gnd vdd FILL
XFILL_27_8_0 gnd vdd FILL
XFILL_10_7_0 gnd vdd FILL
XOAI21X1_340 BUFX4_194/Y BUFX4_309/Y AND2X2_49/A gnd OAI21X1_340/Y vdd OAI21X1
XOAI21X1_351 NAND2X1_82/Y MUX2X1_83/B OAI21X1_351/C gnd OAI21X1_351/Y vdd OAI21X1
XOAI21X1_362 BUFX4_188/Y BUFX4_197/Y INVX1_339/A gnd OAI21X1_362/Y vdd OAI21X1
XOAI21X1_373 BUFX4_178/Y NAND2X1_6/B NAND2X1_91/Y gnd DFFPOSX1_51/D vdd OAI21X1
XAND2X2_7 AND2X2_7/A AND2X2_7/B gnd AND2X2_7/Y vdd AND2X2
XOAI21X1_395 BUFX4_450/Y BUFX4_293/Y NOR2X1_606/A gnd OAI21X1_395/Y vdd OAI21X1
XOAI21X1_384 BUFX4_294/Y BUFX4_299/Y NOR2X1_503/A gnd OAI21X1_384/Y vdd OAI21X1
XINVX1_404 INVX1_404/A gnd INVX1_404/Y vdd INVX1
XINVX1_426 INVX1_426/A gnd INVX1_426/Y vdd INVX1
XINVX1_415 INVX1_415/A gnd INVX1_415/Y vdd INVX1
XINVX1_459 INVX1_459/A gnd INVX1_459/Y vdd INVX1
XINVX1_437 INVX1_437/A gnd INVX1_437/Y vdd INVX1
XINVX1_448 INVX1_448/A gnd INVX1_448/Y vdd INVX1
XFILL_18_8_0 gnd vdd FILL
XAOI21X1_419 BUFX4_285/Y INVX1_382/Y AOI21X1_419/C gnd OAI21X1_962/B vdd AOI21X1
XAOI21X1_408 BUFX4_35/Y NOR2X1_648/A OAI21X1_939/Y gnd OAI22X1_39/C vdd AOI21X1
XMUX2X1_19 INVX1_25/Y BUFX4_71/Y MUX2X1_18/S gnd MUX2X1_19/Y vdd MUX2X1
XFILL_42_6_0 gnd vdd FILL
XAOI22X1_2 traffic_Street_1[3] OR2X2_1/Y AOI22X1_2/C AOI22X1_2/D gnd AOI22X1_2/Y vdd
+ AOI22X1
XOAI21X1_181 NAND2X1_57/Y MUX2X1_82/B OAI21X1_180/Y gnd OAI21X1_181/Y vdd OAI21X1
XOAI21X1_170 BUFX4_128/Y BUFX4_297/Y INVX1_337/A gnd OAI21X1_171/C vdd OAI21X1
XINVX1_201 INVX1_201/A gnd INVX1_201/Y vdd INVX1
XOAI21X1_192 BUFX4_387/Y BUFX4_408/Y INVX1_287/A gnd OAI21X1_192/Y vdd OAI21X1
XINVX1_223 INVX1_223/A gnd INVX1_223/Y vdd INVX1
XINVX1_212 AOI22X1_7/C gnd INVX1_212/Y vdd INVX1
XINVX1_234 INVX1_234/A gnd INVX1_234/Y vdd INVX1
XINVX1_267 INVX1_267/A gnd INVX1_267/Y vdd INVX1
XINVX1_245 INVX1_245/A gnd INVX1_245/Y vdd INVX1
XINVX1_256 INVX1_256/A gnd INVX1_256/Y vdd INVX1
XINVX1_278 INVX1_278/A gnd INVX1_278/Y vdd INVX1
XINVX1_289 INVX1_289/A gnd INVX1_289/Y vdd INVX1
XNAND2X1_34 traffic_Street_1[3] NOR2X1_76/B gnd NAND2X1_34/Y vdd NAND2X1
XNAND2X1_12 INVX1_330/A OAI21X1_7/B gnd OAI21X1_7/C vdd NAND2X1
XNAND2X1_23 NOR2X1_4/Y NOR2X1_12/Y gnd BUFX4_124/A vdd NAND2X1
XNAND2X1_56 INVX8_20/A INVX4_2/Y gnd NAND2X1_56/Y vdd NAND2X1