*SPICE netlist created from BLIF module Turn_Controller by blif2BSpice
.include /usr/local/share/qflow/tech/osu018/osu018_stdcells.sp
.subckt Turn_Controller vdd gnd clock ped_Hori_Interrupt ped_Vert_Interrupt police_Interrupt traffic_Street_0[0] traffic_Street_0[1] traffic_Street_0[2] traffic_Street_0[3] traffic_Street_1[0] traffic_Street_1[1] traffic_Street_1[2] traffic_Street_1[3] address[0] address[1] address[2] address[3] address[4] address[5] address[6] read_Write enable street north_South[0] north_South[1] west_East[0] west_East[1] pedestrian_Hori_Street pedestrian_Vert_Street traffic_Street[0] traffic_Street[1] traffic_Street[2] traffic_Street[3] 
XBUFX4_1 vdd gnd clock clock_hier0_bF$buf9 BUFX4
XBUFX4_2 vdd gnd clock clock_hier0_bF$buf8 BUFX4
XBUFX4_3 vdd gnd clock clock_hier0_bF$buf7 BUFX4
XBUFX4_4 vdd gnd clock clock_hier0_bF$buf6 BUFX4
XBUFX4_5 vdd gnd clock clock_hier0_bF$buf5 BUFX4
XBUFX4_6 vdd gnd clock clock_hier0_bF$buf4 BUFX4
XBUFX4_7 vdd gnd clock clock_hier0_bF$buf3 BUFX4
XBUFX4_8 vdd gnd clock clock_hier0_bF$buf2 BUFX4
XBUFX4_9 vdd gnd clock clock_hier0_bF$buf1 BUFX4
XBUFX4_10 vdd gnd clock clock_hier0_bF$buf0 BUFX4
XBUFX4_11 vdd gnd address[1] address[1]_hier0_bF$buf5 BUFX4
XBUFX4_12 vdd gnd address[1] address[1]_hier0_bF$buf4 BUFX4
XBUFX4_13 vdd gnd address[1] address[1]_hier0_bF$buf3 BUFX4
XBUFX4_14 vdd gnd address[1] address[1]_hier0_bF$buf2 BUFX4
XBUFX4_15 vdd gnd address[1] address[1]_hier0_bF$buf1 BUFX4
XBUFX4_16 vdd gnd address[1] address[1]_hier0_bF$buf0 BUFX4
XBUFX4_17 vdd gnd address[0] address[0]_hier0_bF$buf7 BUFX4
XBUFX4_18 vdd gnd address[0] address[0]_hier0_bF$buf6 BUFX4
XBUFX4_19 vdd gnd address[0] address[0]_hier0_bF$buf5 BUFX4
XBUFX4_20 vdd gnd address[0] address[0]_hier0_bF$buf4 BUFX4
XBUFX4_21 vdd gnd address[0] address[0]_hier0_bF$buf3 BUFX4
XBUFX4_22 vdd gnd address[0] address[0]_hier0_bF$buf2 BUFX4
XBUFX4_23 vdd gnd address[0] address[0]_hier0_bF$buf1 BUFX4
XBUFX4_24 vdd gnd address[0] address[0]_hier0_bF$buf0 BUFX4
XBUFX4_25 vdd gnd _2334_ _2334__hier0_bF$buf5 BUFX4
XBUFX4_26 vdd gnd _2334_ _2334__hier0_bF$buf4 BUFX4
XBUFX4_27 vdd gnd _2334_ _2334__hier0_bF$buf3 BUFX4
XBUFX4_28 vdd gnd _2334_ _2334__hier0_bF$buf2 BUFX4
XBUFX4_29 vdd gnd _2334_ _2334__hier0_bF$buf1 BUFX4
XBUFX4_30 vdd gnd _2334_ _2334__hier0_bF$buf0 BUFX4
XBUFX4_31 vdd gnd _2330_ _2330__bF$buf10 BUFX4
XBUFX4_32 vdd gnd _2330_ _2330__bF$buf9 BUFX4
XBUFX4_33 vdd gnd _2330_ _2330__bF$buf8 BUFX4
XBUFX4_34 vdd gnd _2330_ _2330__bF$buf7 BUFX4
XBUFX4_35 vdd gnd _2330_ _2330__bF$buf6 BUFX4
XBUFX4_36 vdd gnd _2330_ _2330__bF$buf5 BUFX4
XBUFX4_37 vdd gnd _2330_ _2330__bF$buf4 BUFX4
XBUFX4_38 vdd gnd _2330_ _2330__bF$buf3 BUFX4
XBUFX4_39 vdd gnd _2330_ _2330__bF$buf2 BUFX4
XBUFX4_40 vdd gnd _2330_ _2330__bF$buf1 BUFX4
XBUFX4_41 vdd gnd _2330_ _2330__bF$buf0 BUFX4
XBUFX4_42 vdd gnd _1216_ _1216__bF$buf4 BUFX4
XBUFX4_43 vdd gnd _1216_ _1216__bF$buf3 BUFX4
XBUFX4_44 vdd gnd _1216_ _1216__bF$buf2 BUFX4
XBUFX4_45 vdd gnd _1216_ _1216__bF$buf1 BUFX4
XBUFX4_46 vdd gnd _1216_ _1216__bF$buf0 BUFX4
XBUFX4_47 vdd gnd address[4] address[4_bF$buf4] BUFX4
XBUFX4_48 vdd gnd address[4] address[4_bF$buf3] BUFX4
XBUFX4_49 vdd gnd address[4] address[4_bF$buf2] BUFX4
XBUFX4_50 vdd gnd address[4] address[4_bF$buf1] BUFX4
XBUFX4_51 vdd gnd address[4] address[4_bF$buf0] BUFX4
XBUFX4_52 vdd gnd _1310_ _1310__bF$buf3 BUFX4
XBUFX4_53 vdd gnd _1310_ _1310__bF$buf2 BUFX4
XBUFX4_54 vdd gnd _1310_ _1310__bF$buf1 BUFX4
XBUFX4_55 vdd gnd _1310_ _1310__bF$buf0 BUFX4
XBUFX4_56 vdd gnd _1116_ _1116__bF$buf6 BUFX4
XBUFX4_57 vdd gnd _1116_ _1116__bF$buf5 BUFX4
XBUFX4_58 vdd gnd _1116_ _1116__bF$buf4 BUFX4
XBUFX4_59 vdd gnd _1116_ _1116__bF$buf3 BUFX4
XBUFX4_60 vdd gnd _1116_ _1116__bF$buf2 BUFX4
XBUFX4_61 vdd gnd _1116_ _1116__bF$buf1 BUFX4
XBUFX4_62 vdd gnd _1116_ _1116__bF$buf0 BUFX4
XCLKBUF1_1 clock_hier0_bF$buf0 vdd gnd clock_bF$buf102 CLKBUF1
XCLKBUF1_2 clock_hier0_bF$buf4 vdd gnd clock_bF$buf101 CLKBUF1
XCLKBUF1_3 clock_hier0_bF$buf6 vdd gnd clock_bF$buf100 CLKBUF1
XCLKBUF1_4 clock_hier0_bF$buf0 vdd gnd clock_bF$buf99 CLKBUF1
XCLKBUF1_5 clock_hier0_bF$buf9 vdd gnd clock_bF$buf98 CLKBUF1
XCLKBUF1_6 clock_hier0_bF$buf8 vdd gnd clock_bF$buf97 CLKBUF1
XCLKBUF1_7 clock_hier0_bF$buf6 vdd gnd clock_bF$buf96 CLKBUF1
XCLKBUF1_8 clock_hier0_bF$buf2 vdd gnd clock_bF$buf95 CLKBUF1
XCLKBUF1_9 clock_hier0_bF$buf1 vdd gnd clock_bF$buf94 CLKBUF1
XCLKBUF1_10 clock_hier0_bF$buf1 vdd gnd clock_bF$buf93 CLKBUF1
XCLKBUF1_11 clock_hier0_bF$buf8 vdd gnd clock_bF$buf92 CLKBUF1
XCLKBUF1_12 clock_hier0_bF$buf2 vdd gnd clock_bF$buf91 CLKBUF1
XCLKBUF1_13 clock_hier0_bF$buf1 vdd gnd clock_bF$buf90 CLKBUF1
XCLKBUF1_14 clock_hier0_bF$buf8 vdd gnd clock_bF$buf89 CLKBUF1
XCLKBUF1_15 clock_hier0_bF$buf1 vdd gnd clock_bF$buf88 CLKBUF1
XCLKBUF1_16 clock_hier0_bF$buf8 vdd gnd clock_bF$buf87 CLKBUF1
XCLKBUF1_17 clock_hier0_bF$buf5 vdd gnd clock_bF$buf86 CLKBUF1
XCLKBUF1_18 clock_hier0_bF$buf6 vdd gnd clock_bF$buf85 CLKBUF1
XCLKBUF1_19 clock_hier0_bF$buf9 vdd gnd clock_bF$buf84 CLKBUF1
XCLKBUF1_20 clock_hier0_bF$buf8 vdd gnd clock_bF$buf83 CLKBUF1
XCLKBUF1_21 clock_hier0_bF$buf3 vdd gnd clock_bF$buf82 CLKBUF1
XCLKBUF1_22 clock_hier0_bF$buf1 vdd gnd clock_bF$buf81 CLKBUF1
XCLKBUF1_23 clock_hier0_bF$buf5 vdd gnd clock_bF$buf80 CLKBUF1
XCLKBUF1_24 clock_hier0_bF$buf3 vdd gnd clock_bF$buf79 CLKBUF1
XCLKBUF1_25 clock_hier0_bF$buf9 vdd gnd clock_bF$buf78 CLKBUF1
XCLKBUF1_26 clock_hier0_bF$buf4 vdd gnd clock_bF$buf77 CLKBUF1
XCLKBUF1_27 clock_hier0_bF$buf2 vdd gnd clock_bF$buf76 CLKBUF1
XCLKBUF1_28 clock_hier0_bF$buf3 vdd gnd clock_bF$buf75 CLKBUF1
XCLKBUF1_29 clock_hier0_bF$buf2 vdd gnd clock_bF$buf74 CLKBUF1
XCLKBUF1_30 clock_hier0_bF$buf3 vdd gnd clock_bF$buf73 CLKBUF1
XCLKBUF1_31 clock_hier0_bF$buf9 vdd gnd clock_bF$buf72 CLKBUF1
XCLKBUF1_32 clock_hier0_bF$buf4 vdd gnd clock_bF$buf71 CLKBUF1
XCLKBUF1_33 clock_hier0_bF$buf6 vdd gnd clock_bF$buf70 CLKBUF1
XCLKBUF1_34 clock_hier0_bF$buf4 vdd gnd clock_bF$buf69 CLKBUF1
XCLKBUF1_35 clock_hier0_bF$buf9 vdd gnd clock_bF$buf68 CLKBUF1
XCLKBUF1_36 clock_hier0_bF$buf5 vdd gnd clock_bF$buf67 CLKBUF1
XCLKBUF1_37 clock_hier0_bF$buf2 vdd gnd clock_bF$buf66 CLKBUF1
XCLKBUF1_38 clock_hier0_bF$buf8 vdd gnd clock_bF$buf65 CLKBUF1
XCLKBUF1_39 clock_hier0_bF$buf1 vdd gnd clock_bF$buf64 CLKBUF1
XCLKBUF1_40 clock_hier0_bF$buf3 vdd gnd clock_bF$buf63 CLKBUF1
XCLKBUF1_41 clock_hier0_bF$buf2 vdd gnd clock_bF$buf62 CLKBUF1
XCLKBUF1_42 clock_hier0_bF$buf5 vdd gnd clock_bF$buf61 CLKBUF1
XCLKBUF1_43 clock_hier0_bF$buf9 vdd gnd clock_bF$buf60 CLKBUF1
XCLKBUF1_44 clock_hier0_bF$buf6 vdd gnd clock_bF$buf59 CLKBUF1
XCLKBUF1_45 clock_hier0_bF$buf2 vdd gnd clock_bF$buf58 CLKBUF1
XCLKBUF1_46 clock_hier0_bF$buf0 vdd gnd clock_bF$buf57 CLKBUF1
XCLKBUF1_47 clock_hier0_bF$buf8 vdd gnd clock_bF$buf56 CLKBUF1
XCLKBUF1_48 clock_hier0_bF$buf5 vdd gnd clock_bF$buf55 CLKBUF1
XCLKBUF1_49 clock_hier0_bF$buf0 vdd gnd clock_bF$buf54 CLKBUF1
XCLKBUF1_50 clock_hier0_bF$buf0 vdd gnd clock_bF$buf53 CLKBUF1
XCLKBUF1_51 clock_hier0_bF$buf7 vdd gnd clock_bF$buf52 CLKBUF1
XCLKBUF1_52 clock_hier0_bF$buf4 vdd gnd clock_bF$buf51 CLKBUF1
XCLKBUF1_53 clock_hier0_bF$buf9 vdd gnd clock_bF$buf50 CLKBUF1
XCLKBUF1_54 clock_hier0_bF$buf1 vdd gnd clock_bF$buf49 CLKBUF1
XCLKBUF1_55 clock_hier0_bF$buf7 vdd gnd clock_bF$buf48 CLKBUF1
XCLKBUF1_56 clock_hier0_bF$buf4 vdd gnd clock_bF$buf47 CLKBUF1
XCLKBUF1_57 clock_hier0_bF$buf4 vdd gnd clock_bF$buf46 CLKBUF1
XCLKBUF1_58 clock_hier0_bF$buf7 vdd gnd clock_bF$buf45 CLKBUF1
XCLKBUF1_59 clock_hier0_bF$buf2 vdd gnd clock_bF$buf44 CLKBUF1
XCLKBUF1_60 clock_hier0_bF$buf6 vdd gnd clock_bF$buf43 CLKBUF1
XCLKBUF1_61 clock_hier0_bF$buf1 vdd gnd clock_bF$buf42 CLKBUF1
XCLKBUF1_62 clock_hier0_bF$buf4 vdd gnd clock_bF$buf41 CLKBUF1
XCLKBUF1_63 clock_hier0_bF$buf0 vdd gnd clock_bF$buf40 CLKBUF1
XCLKBUF1_64 clock_hier0_bF$buf5 vdd gnd clock_bF$buf39 CLKBUF1
XCLKBUF1_65 clock_hier0_bF$buf1 vdd gnd clock_bF$buf38 CLKBUF1
XCLKBUF1_66 clock_hier0_bF$buf7 vdd gnd clock_bF$buf37 CLKBUF1
XCLKBUF1_67 clock_hier0_bF$buf6 vdd gnd clock_bF$buf36 CLKBUF1
XCLKBUF1_68 clock_hier0_bF$buf8 vdd gnd clock_bF$buf35 CLKBUF1
XCLKBUF1_69 clock_hier0_bF$buf9 vdd gnd clock_bF$buf34 CLKBUF1
XCLKBUF1_70 clock_hier0_bF$buf9 vdd gnd clock_bF$buf33 CLKBUF1
XCLKBUF1_71 clock_hier0_bF$buf6 vdd gnd clock_bF$buf32 CLKBUF1
XCLKBUF1_72 clock_hier0_bF$buf9 vdd gnd clock_bF$buf31 CLKBUF1
XCLKBUF1_73 clock_hier0_bF$buf8 vdd gnd clock_bF$buf30 CLKBUF1
XCLKBUF1_74 clock_hier0_bF$buf6 vdd gnd clock_bF$buf29 CLKBUF1
XCLKBUF1_75 clock_hier0_bF$buf5 vdd gnd clock_bF$buf28 CLKBUF1
XCLKBUF1_76 clock_hier0_bF$buf3 vdd gnd clock_bF$buf27 CLKBUF1
XCLKBUF1_77 clock_hier0_bF$buf7 vdd gnd clock_bF$buf26 CLKBUF1
XCLKBUF1_78 clock_hier0_bF$buf8 vdd gnd clock_bF$buf25 CLKBUF1
XCLKBUF1_79 clock_hier0_bF$buf5 vdd gnd clock_bF$buf24 CLKBUF1
XCLKBUF1_80 clock_hier0_bF$buf3 vdd gnd clock_bF$buf23 CLKBUF1
XCLKBUF1_81 clock_hier0_bF$buf7 vdd gnd clock_bF$buf22 CLKBUF1
XCLKBUF1_82 clock_hier0_bF$buf0 vdd gnd clock_bF$buf21 CLKBUF1
XCLKBUF1_83 clock_hier0_bF$buf1 vdd gnd clock_bF$buf20 CLKBUF1
XCLKBUF1_84 clock_hier0_bF$buf3 vdd gnd clock_bF$buf19 CLKBUF1
XCLKBUF1_85 clock_hier0_bF$buf8 vdd gnd clock_bF$buf18 CLKBUF1
XCLKBUF1_86 clock_hier0_bF$buf2 vdd gnd clock_bF$buf17 CLKBUF1
XCLKBUF1_87 clock_hier0_bF$buf7 vdd gnd clock_bF$buf16 CLKBUF1
XCLKBUF1_88 clock_hier0_bF$buf0 vdd gnd clock_bF$buf15 CLKBUF1
XCLKBUF1_89 clock_hier0_bF$buf6 vdd gnd clock_bF$buf14 CLKBUF1
XCLKBUF1_90 clock_hier0_bF$buf5 vdd gnd clock_bF$buf13 CLKBUF1
XCLKBUF1_91 clock_hier0_bF$buf3 vdd gnd clock_bF$buf12 CLKBUF1
XCLKBUF1_92 clock_hier0_bF$buf5 vdd gnd clock_bF$buf11 CLKBUF1
XCLKBUF1_93 clock_hier0_bF$buf4 vdd gnd clock_bF$buf10 CLKBUF1
XCLKBUF1_94 clock_hier0_bF$buf9 vdd gnd clock_bF$buf9 CLKBUF1
XCLKBUF1_95 clock_hier0_bF$buf0 vdd gnd clock_bF$buf8 CLKBUF1
XCLKBUF1_96 clock_hier0_bF$buf7 vdd gnd clock_bF$buf7 CLKBUF1
XCLKBUF1_97 clock_hier0_bF$buf4 vdd gnd clock_bF$buf6 CLKBUF1
XCLKBUF1_98 clock_hier0_bF$buf7 vdd gnd clock_bF$buf5 CLKBUF1
XCLKBUF1_99 clock_hier0_bF$buf7 vdd gnd clock_bF$buf4 CLKBUF1
XCLKBUF1_100 clock_hier0_bF$buf7 vdd gnd clock_bF$buf3 CLKBUF1
XCLKBUF1_101 clock_hier0_bF$buf2 vdd gnd clock_bF$buf2 CLKBUF1
XCLKBUF1_102 clock_hier0_bF$buf0 vdd gnd clock_bF$buf1 CLKBUF1
XCLKBUF1_103 clock_hier0_bF$buf3 vdd gnd clock_bF$buf0 CLKBUF1
XBUFX4_63 vdd gnd _1057_ _1057__bF$buf10 BUFX4
XBUFX4_64 vdd gnd _1057_ _1057__bF$buf9 BUFX4
XBUFX4_65 vdd gnd _1057_ _1057__bF$buf8 BUFX4
XBUFX4_66 vdd gnd _1057_ _1057__bF$buf7 BUFX4
XBUFX4_67 vdd gnd _1057_ _1057__bF$buf6 BUFX4
XBUFX4_68 vdd gnd _1057_ _1057__bF$buf5 BUFX4
XBUFX4_69 vdd gnd _1057_ _1057__bF$buf4 BUFX4
XBUFX4_70 vdd gnd _1057_ _1057__bF$buf3 BUFX4
XBUFX4_71 vdd gnd _1057_ _1057__bF$buf2 BUFX4
XBUFX4_72 vdd gnd _1057_ _1057__bF$buf1 BUFX4
XBUFX4_73 vdd gnd _1057_ _1057__bF$buf0 BUFX4
XBUFX4_74 vdd gnd address[1]_hier0_bF$buf5 address[1_bF$buf44] BUFX4
XBUFX4_75 vdd gnd address[1]_hier0_bF$buf0 address[1_bF$buf43] BUFX4
XBUFX4_76 vdd gnd address[1]_hier0_bF$buf5 address[1_bF$buf42] BUFX4
XBUFX4_77 vdd gnd address[1]_hier0_bF$buf5 address[1_bF$buf41] BUFX4
XBUFX4_78 vdd gnd address[1]_hier0_bF$buf5 address[1_bF$buf40] BUFX4
XBUFX4_79 vdd gnd address[1]_hier0_bF$buf2 address[1_bF$buf39] BUFX4
XBUFX4_80 vdd gnd address[1]_hier0_bF$buf0 address[1_bF$buf38] BUFX4
XBUFX4_81 vdd gnd address[1]_hier0_bF$buf5 address[1_bF$buf37] BUFX4
XBUFX4_82 vdd gnd address[1]_hier0_bF$buf3 address[1_bF$buf36] BUFX4
XBUFX4_83 vdd gnd address[1]_hier0_bF$buf1 address[1_bF$buf35] BUFX4
XBUFX4_84 vdd gnd address[1]_hier0_bF$buf4 address[1_bF$buf34] BUFX4
XBUFX4_85 vdd gnd address[1]_hier0_bF$buf1 address[1_bF$buf33] BUFX4
XBUFX4_86 vdd gnd address[1]_hier0_bF$buf3 address[1_bF$buf32] BUFX4
XBUFX4_87 vdd gnd address[1]_hier0_bF$buf4 address[1_bF$buf31] BUFX4
XBUFX4_88 vdd gnd address[1]_hier0_bF$buf5 address[1_bF$buf30] BUFX4
XBUFX4_89 vdd gnd address[1]_hier0_bF$buf5 address[1_bF$buf29] BUFX4
XBUFX4_90 vdd gnd address[1]_hier0_bF$buf0 address[1_bF$buf28] BUFX4
XBUFX4_91 vdd gnd address[1]_hier0_bF$buf0 address[1_bF$buf27] BUFX4
XBUFX4_92 vdd gnd address[1]_hier0_bF$buf5 address[1_bF$buf26] BUFX4
XBUFX4_93 vdd gnd address[1]_hier0_bF$buf3 address[1_bF$buf25] BUFX4
XBUFX4_94 vdd gnd address[1]_hier0_bF$buf4 address[1_bF$buf24] BUFX4
XBUFX4_95 vdd gnd address[1]_hier0_bF$buf2 address[1_bF$buf23] BUFX4
XBUFX4_96 vdd gnd address[1]_hier0_bF$buf2 address[1_bF$buf22] BUFX4
XBUFX4_97 vdd gnd address[1]_hier0_bF$buf2 address[1_bF$buf21] BUFX4
XBUFX4_98 vdd gnd address[1]_hier0_bF$buf2 address[1_bF$buf20] BUFX4
XBUFX4_99 vdd gnd address[1]_hier0_bF$buf0 address[1_bF$buf19] BUFX4
XBUFX4_100 vdd gnd address[1]_hier0_bF$buf4 address[1_bF$buf18] BUFX4
XBUFX4_101 vdd gnd address[1]_hier0_bF$buf4 address[1_bF$buf17] BUFX4
XBUFX4_102 vdd gnd address[1]_hier0_bF$buf3 address[1_bF$buf16] BUFX4
XBUFX4_103 vdd gnd address[1]_hier0_bF$buf3 address[1_bF$buf15] BUFX4
XBUFX4_104 vdd gnd address[1]_hier0_bF$buf0 address[1_bF$buf14] BUFX4
XBUFX4_105 vdd gnd address[1]_hier0_bF$buf4 address[1_bF$buf13] BUFX4
XBUFX4_106 vdd gnd address[1]_hier0_bF$buf3 address[1_bF$buf12] BUFX4
XBUFX4_107 vdd gnd address[1]_hier0_bF$buf2 address[1_bF$buf11] BUFX4
XBUFX4_108 vdd gnd address[1]_hier0_bF$buf3 address[1_bF$buf10] BUFX4
XBUFX4_109 vdd gnd address[1]_hier0_bF$buf1 address[1_bF$buf9] BUFX4
XBUFX4_110 vdd gnd address[1]_hier0_bF$buf2 address[1_bF$buf8] BUFX4
XBUFX4_111 vdd gnd address[1]_hier0_bF$buf3 address[1_bF$buf7] BUFX4
XBUFX4_112 vdd gnd address[1]_hier0_bF$buf1 address[1_bF$buf6] BUFX4
XBUFX4_113 vdd gnd address[1]_hier0_bF$buf1 address[1_bF$buf5] BUFX4
XBUFX4_114 vdd gnd address[1]_hier0_bF$buf1 address[1_bF$buf4] BUFX4
XBUFX4_115 vdd gnd address[1]_hier0_bF$buf1 address[1_bF$buf3] BUFX4
XBUFX4_116 vdd gnd address[1]_hier0_bF$buf4 address[1_bF$buf2] BUFX4
XBUFX4_117 vdd gnd address[1]_hier0_bF$buf4 address[1_bF$buf1] BUFX4
XBUFX4_118 vdd gnd address[1]_hier0_bF$buf0 address[1_bF$buf0] BUFX4
XBUFX4_119 vdd gnd _1151_ _1151__bF$buf7 BUFX4
XBUFX4_120 vdd gnd _1151_ _1151__bF$buf6 BUFX4
XBUFX4_121 vdd gnd _1151_ _1151__bF$buf5 BUFX4
XBUFX4_122 vdd gnd _1151_ _1151__bF$buf4 BUFX4
XBUFX4_123 vdd gnd _1151_ _1151__bF$buf3 BUFX4
XBUFX4_124 vdd gnd _1151_ _1151__bF$buf2 BUFX4
XBUFX4_125 vdd gnd _1151_ _1151__bF$buf1 BUFX4
XBUFX4_126 vdd gnd _1151_ _1151__bF$buf0 BUFX4
XBUFX4_127 vdd gnd _1436_ _1436__bF$buf4 BUFX4
XBUFX4_128 vdd gnd _1436_ _1436__bF$buf3 BUFX4
XBUFX4_129 vdd gnd _1436_ _1436__bF$buf2 BUFX4
XBUFX4_130 vdd gnd _1436_ _1436__bF$buf1 BUFX4
XBUFX4_131 vdd gnd _1436_ _1436__bF$buf0 BUFX4
XBUFX4_132 vdd gnd _1145_ _1145__bF$buf5 BUFX4
XBUFX4_133 vdd gnd _1145_ _1145__bF$buf4 BUFX4
XBUFX4_134 vdd gnd _1145_ _1145__bF$buf3 BUFX4
XBUFX4_135 vdd gnd _1145_ _1145__bF$buf2 BUFX4
XBUFX4_136 vdd gnd _1145_ _1145__bF$buf1 BUFX4
XBUFX4_137 vdd gnd _1145_ _1145__bF$buf0 BUFX4
XBUFX4_138 vdd gnd _1524_ _1524__bF$buf3 BUFX4
XBUFX4_139 vdd gnd _1524_ _1524__bF$buf2 BUFX4
XBUFX4_140 vdd gnd _1524_ _1524__bF$buf1 BUFX4
XBUFX4_141 vdd gnd _1524_ _1524__bF$buf0 BUFX4
XBUFX4_142 vdd gnd _1130_ _1130__bF$buf3 BUFX4
XBUFX4_143 vdd gnd _1130_ _1130__bF$buf2 BUFX4
XBUFX4_144 vdd gnd _1130_ _1130__bF$buf1 BUFX4
XBUFX4_145 vdd gnd _1130_ _1130__bF$buf0 BUFX4
XBUFX4_146 vdd gnd _2335_ _2335__bF$buf13 BUFX4
XBUFX4_147 vdd gnd _2335_ _2335__bF$buf12 BUFX4
XBUFX4_148 vdd gnd _2335_ _2335__bF$buf11 BUFX4
XBUFX4_149 vdd gnd _2335_ _2335__bF$buf10 BUFX4
XBUFX4_150 vdd gnd _2335_ _2335__bF$buf9 BUFX4
XBUFX4_151 vdd gnd _2335_ _2335__bF$buf8 BUFX4
XBUFX4_152 vdd gnd _2335_ _2335__bF$buf7 BUFX4
XBUFX4_153 vdd gnd _2335_ _2335__bF$buf6 BUFX4
XBUFX4_154 vdd gnd _2335_ _2335__bF$buf5 BUFX4
XBUFX4_155 vdd gnd _2335_ _2335__bF$buf4 BUFX4
XBUFX4_156 vdd gnd _2335_ _2335__bF$buf3 BUFX4
XBUFX4_157 vdd gnd _2335_ _2335__bF$buf2 BUFX4
XBUFX4_158 vdd gnd _2335_ _2335__bF$buf1 BUFX4
XBUFX4_159 vdd gnd _2335_ _2335__bF$buf0 BUFX4
XBUFX4_160 vdd gnd _1606_ _1606__bF$buf4 BUFX4
XBUFX4_161 vdd gnd _1606_ _1606__bF$buf3 BUFX4
XBUFX4_162 vdd gnd _1606_ _1606__bF$buf2 BUFX4
XBUFX4_163 vdd gnd _1606_ _1606__bF$buf1 BUFX4
XBUFX4_164 vdd gnd _1606_ _1606__bF$buf0 BUFX4
XBUFX4_165 vdd gnd _2329_ _2329__bF$buf6 BUFX4
XBUFX4_166 vdd gnd _2329_ _2329__bF$buf5 BUFX4
XBUFX4_167 vdd gnd _2329_ _2329__bF$buf4 BUFX4
XBUFX4_168 vdd gnd _2329_ _2329__bF$buf3 BUFX4
XBUFX4_169 vdd gnd _2329_ _2329__bF$buf2 BUFX4
XBUFX4_170 vdd gnd _2329_ _2329__bF$buf1 BUFX4
XBUFX4_171 vdd gnd _2329_ _2329__bF$buf0 BUFX4
XBUFX4_172 vdd gnd _1218_ _1218__bF$buf10 BUFX4
XBUFX4_173 vdd gnd _1218_ _1218__bF$buf9 BUFX4
XBUFX4_174 vdd gnd _1218_ _1218__bF$buf8 BUFX4
XBUFX4_175 vdd gnd _1218_ _1218__bF$buf7 BUFX4
XBUFX4_176 vdd gnd _1218_ _1218__bF$buf6 BUFX4
XBUFX4_177 vdd gnd _1218_ _1218__bF$buf5 BUFX4
XBUFX4_178 vdd gnd _1218_ _1218__bF$buf4 BUFX4
XBUFX4_179 vdd gnd _1218_ _1218__bF$buf3 BUFX4
XBUFX4_180 vdd gnd _1218_ _1218__bF$buf2 BUFX4
XBUFX4_181 vdd gnd _1218_ _1218__bF$buf1 BUFX4
XBUFX4_182 vdd gnd _1218_ _1218__bF$buf0 BUFX4
XBUFX4_183 vdd gnd _1391_ _1391__bF$buf4 BUFX4
XBUFX4_184 vdd gnd _1391_ _1391__bF$buf3 BUFX4
XBUFX4_185 vdd gnd _1391_ _1391__bF$buf2 BUFX4
XBUFX4_186 vdd gnd _1391_ _1391__bF$buf1 BUFX4
XBUFX4_187 vdd gnd _1391_ _1391__bF$buf0 BUFX4
XBUFX4_188 vdd gnd _1159_ _1159__bF$buf6 BUFX4
XBUFX4_189 vdd gnd _1159_ _1159__bF$buf5 BUFX4
XBUFX4_190 vdd gnd _1159_ _1159__bF$buf4 BUFX4
XBUFX4_191 vdd gnd _1159_ _1159__bF$buf3 BUFX4
XBUFX4_192 vdd gnd _1159_ _1159__bF$buf2 BUFX4
XBUFX4_193 vdd gnd _1159_ _1159__bF$buf1 BUFX4
XBUFX4_194 vdd gnd _1159_ _1159__bF$buf0 BUFX4
XBUFX4_195 vdd gnd _1732_ _1732__bF$buf4 BUFX4
XBUFX4_196 vdd gnd _1732_ _1732__bF$buf3 BUFX4
XBUFX4_197 vdd gnd _1732_ _1732__bF$buf2 BUFX4
XBUFX4_198 vdd gnd _1732_ _1732__bF$buf1 BUFX4
XBUFX4_199 vdd gnd _1732_ _1732__bF$buf0 BUFX4
XBUFX4_200 vdd gnd address[3] address[3_bF$buf7] BUFX4
XBUFX4_201 vdd gnd address[3] address[3_bF$buf6] BUFX4
XBUFX4_202 vdd gnd address[3] address[3_bF$buf5] BUFX4
XBUFX4_203 vdd gnd address[3] address[3_bF$buf4] BUFX4
XBUFX4_204 vdd gnd address[3] address[3_bF$buf3] BUFX4
XBUFX4_205 vdd gnd address[3] address[3_bF$buf2] BUFX4
XBUFX4_206 vdd gnd address[3] address[3_bF$buf1] BUFX4
XBUFX4_207 vdd gnd address[3] address[3_bF$buf0] BUFX4
XBUFX4_208 vdd gnd _1209_ _1209__bF$buf10 BUFX4
XBUFX4_209 vdd gnd _1209_ _1209__bF$buf9 BUFX4
XBUFX4_210 vdd gnd _1209_ _1209__bF$buf8 BUFX4
XBUFX4_211 vdd gnd _1209_ _1209__bF$buf7 BUFX4
XBUFX4_212 vdd gnd _1209_ _1209__bF$buf6 BUFX4
XBUFX4_213 vdd gnd _1209_ _1209__bF$buf5 BUFX4
XBUFX4_214 vdd gnd _1209_ _1209__bF$buf4 BUFX4
XBUFX4_215 vdd gnd _1209_ _1209__bF$buf3 BUFX4
XBUFX4_216 vdd gnd _1209_ _1209__bF$buf2 BUFX4
XBUFX4_217 vdd gnd _1209_ _1209__bF$buf1 BUFX4
XBUFX4_218 vdd gnd _1209_ _1209__bF$buf0 BUFX4
XBUFX4_219 vdd gnd address[0]_hier0_bF$buf1 address[0_bF$buf72] BUFX4
XBUFX4_220 vdd gnd address[0]_hier0_bF$buf4 address[0_bF$buf71] BUFX4
XBUFX4_221 vdd gnd address[0]_hier0_bF$buf3 address[0_bF$buf70] BUFX4
XBUFX4_222 vdd gnd address[0]_hier0_bF$buf7 address[0_bF$buf69] BUFX4
XBUFX4_223 vdd gnd address[0]_hier0_bF$buf7 address[0_bF$buf68] BUFX4
XBUFX4_224 vdd gnd address[0]_hier0_bF$buf2 address[0_bF$buf67] BUFX4
XBUFX4_225 vdd gnd address[0]_hier0_bF$buf4 address[0_bF$buf66] BUFX4
XBUFX4_226 vdd gnd address[0]_hier0_bF$buf1 address[0_bF$buf65] BUFX4
XBUFX4_227 vdd gnd address[0]_hier0_bF$buf1 address[0_bF$buf64] BUFX4
XBUFX4_228 vdd gnd address[0]_hier0_bF$buf7 address[0_bF$buf63] BUFX4
XBUFX4_229 vdd gnd address[0]_hier0_bF$buf6 address[0_bF$buf62] BUFX4
XBUFX4_230 vdd gnd address[0]_hier0_bF$buf2 address[0_bF$buf61] BUFX4
XBUFX4_231 vdd gnd address[0]_hier0_bF$buf7 address[0_bF$buf60] BUFX4
XBUFX4_232 vdd gnd address[0]_hier0_bF$buf0 address[0_bF$buf59] BUFX4
XBUFX4_233 vdd gnd address[0]_hier0_bF$buf0 address[0_bF$buf58] BUFX4
XBUFX4_234 vdd gnd address[0]_hier0_bF$buf6 address[0_bF$buf57] BUFX4
XBUFX4_235 vdd gnd address[0]_hier0_bF$buf1 address[0_bF$buf56] BUFX4
XBUFX4_236 vdd gnd address[0]_hier0_bF$buf4 address[0_bF$buf55] BUFX4
XBUFX4_237 vdd gnd address[0]_hier0_bF$buf5 address[0_bF$buf54] BUFX4
XBUFX4_238 vdd gnd address[0]_hier0_bF$buf7 address[0_bF$buf53] BUFX4
XBUFX4_239 vdd gnd address[0]_hier0_bF$buf5 address[0_bF$buf52] BUFX4
XBUFX4_240 vdd gnd address[0]_hier0_bF$buf7 address[0_bF$buf51] BUFX4
XBUFX4_241 vdd gnd address[0]_hier0_bF$buf4 address[0_bF$buf50] BUFX4
XBUFX4_242 vdd gnd address[0]_hier0_bF$buf4 address[0_bF$buf49] BUFX4
XBUFX4_243 vdd gnd address[0]_hier0_bF$buf2 address[0_bF$buf48] BUFX4
XBUFX4_244 vdd gnd address[0]_hier0_bF$buf2 address[0_bF$buf47] BUFX4
XBUFX4_245 vdd gnd address[0]_hier0_bF$buf7 address[0_bF$buf46] BUFX4
XBUFX4_246 vdd gnd address[0]_hier0_bF$buf3 address[0_bF$buf45] BUFX4
XBUFX4_247 vdd gnd address[0]_hier0_bF$buf1 address[0_bF$buf44] BUFX4
XBUFX4_248 vdd gnd address[0]_hier0_bF$buf3 address[0_bF$buf43] BUFX4
XBUFX4_249 vdd gnd address[0]_hier0_bF$buf0 address[0_bF$buf42] BUFX4
XBUFX4_250 vdd gnd address[0]_hier0_bF$buf0 address[0_bF$buf41] BUFX4
XBUFX4_251 vdd gnd address[0]_hier0_bF$buf3 address[0_bF$buf40] BUFX4
XBUFX4_252 vdd gnd address[0]_hier0_bF$buf0 address[0_bF$buf39] BUFX4
XBUFX4_253 vdd gnd address[0]_hier0_bF$buf5 address[0_bF$buf38] BUFX4
XBUFX4_254 vdd gnd address[0]_hier0_bF$buf1 address[0_bF$buf37] BUFX4
XBUFX4_255 vdd gnd address[0]_hier0_bF$buf0 address[0_bF$buf36] BUFX4
XBUFX4_256 vdd gnd address[0]_hier0_bF$buf4 address[0_bF$buf35] BUFX4
XBUFX4_257 vdd gnd address[0]_hier0_bF$buf3 address[0_bF$buf34] BUFX4
XBUFX4_258 vdd gnd address[0]_hier0_bF$buf4 address[0_bF$buf33] BUFX4
XBUFX4_259 vdd gnd address[0]_hier0_bF$buf2 address[0_bF$buf32] BUFX4
XBUFX4_260 vdd gnd address[0]_hier0_bF$buf3 address[0_bF$buf31] BUFX4
XBUFX4_261 vdd gnd address[0]_hier0_bF$buf2 address[0_bF$buf30] BUFX4
XBUFX4_262 vdd gnd address[0]_hier0_bF$buf3 address[0_bF$buf29] BUFX4
XBUFX4_263 vdd gnd address[0]_hier0_bF$buf0 address[0_bF$buf28] BUFX4
XBUFX4_264 vdd gnd address[0]_hier0_bF$buf6 address[0_bF$buf27] BUFX4
XBUFX4_265 vdd gnd address[0]_hier0_bF$buf6 address[0_bF$buf26] BUFX4
XBUFX4_266 vdd gnd address[0]_hier0_bF$buf6 address[0_bF$buf25] BUFX4
XBUFX4_267 vdd gnd address[0]_hier0_bF$buf4 address[0_bF$buf24] BUFX4
XBUFX4_268 vdd gnd address[0]_hier0_bF$buf2 address[0_bF$buf23] BUFX4
XBUFX4_269 vdd gnd address[0]_hier0_bF$buf3 address[0_bF$buf22] BUFX4
XBUFX4_270 vdd gnd address[0]_hier0_bF$buf5 address[0_bF$buf21] BUFX4
XBUFX4_271 vdd gnd address[0]_hier0_bF$buf1 address[0_bF$buf20] BUFX4
XBUFX4_272 vdd gnd address[0]_hier0_bF$buf5 address[0_bF$buf19] BUFX4
XBUFX4_273 vdd gnd address[0]_hier0_bF$buf3 address[0_bF$buf18] BUFX4
XBUFX4_274 vdd gnd address[0]_hier0_bF$buf0 address[0_bF$buf17] BUFX4
XBUFX4_275 vdd gnd address[0]_hier0_bF$buf5 address[0_bF$buf16] BUFX4
XBUFX4_276 vdd gnd address[0]_hier0_bF$buf0 address[0_bF$buf15] BUFX4
XBUFX4_277 vdd gnd address[0]_hier0_bF$buf7 address[0_bF$buf14] BUFX4
XBUFX4_278 vdd gnd address[0]_hier0_bF$buf6 address[0_bF$buf13] BUFX4
XBUFX4_279 vdd gnd address[0]_hier0_bF$buf1 address[0_bF$buf12] BUFX4
XBUFX4_280 vdd gnd address[0]_hier0_bF$buf5 address[0_bF$buf11] BUFX4
XBUFX4_281 vdd gnd address[0]_hier0_bF$buf7 address[0_bF$buf10] BUFX4
XBUFX4_282 vdd gnd address[0]_hier0_bF$buf5 address[0_bF$buf9] BUFX4
XBUFX4_283 vdd gnd address[0]_hier0_bF$buf4 address[0_bF$buf8] BUFX4
XBUFX4_284 vdd gnd address[0]_hier0_bF$buf6 address[0_bF$buf7] BUFX4
XBUFX4_285 vdd gnd address[0]_hier0_bF$buf2 address[0_bF$buf6] BUFX4
XBUFX4_286 vdd gnd address[0]_hier0_bF$buf5 address[0_bF$buf5] BUFX4
XBUFX4_287 vdd gnd address[0]_hier0_bF$buf6 address[0_bF$buf4] BUFX4
XBUFX4_288 vdd gnd address[0]_hier0_bF$buf2 address[0_bF$buf3] BUFX4
XBUFX4_289 vdd gnd address[0]_hier0_bF$buf7 address[0_bF$buf2] BUFX4
XBUFX4_290 vdd gnd address[0]_hier0_bF$buf1 address[0_bF$buf1] BUFX4
XBUFX4_291 vdd gnd address[0]_hier0_bF$buf6 address[0_bF$buf0] BUFX4
XBUFX4_292 vdd gnd _1109_ _1109__bF$buf4 BUFX4
XBUFX4_293 vdd gnd _1109_ _1109__bF$buf3 BUFX4
XBUFX4_294 vdd gnd _1109_ _1109__bF$buf2 BUFX4
XBUFX4_295 vdd gnd _1109_ _1109__bF$buf1 BUFX4
XBUFX4_296 vdd gnd _1109_ _1109__bF$buf0 BUFX4
XBUFX4_297 vdd gnd _1106_ _1106__bF$buf6 BUFX4
XBUFX4_298 vdd gnd _1106_ _1106__bF$buf5 BUFX4
XBUFX4_299 vdd gnd _1106_ _1106__bF$buf4 BUFX4
XBUFX4_300 vdd gnd _1106_ _1106__bF$buf3 BUFX4
XBUFX4_301 vdd gnd _1106_ _1106__bF$buf2 BUFX4
XBUFX4_302 vdd gnd _1106_ _1106__bF$buf1 BUFX4
XBUFX4_303 vdd gnd _1106_ _1106__bF$buf0 BUFX4
XBUFX4_304 vdd gnd _2058_ _2058__bF$buf3 BUFX4
XBUFX4_305 vdd gnd _2058_ _2058__bF$buf2 BUFX4
XBUFX4_306 vdd gnd _2058_ _2058__bF$buf1 BUFX4
XBUFX4_307 vdd gnd _2058_ _2058__bF$buf0 BUFX4
XBUFX4_308 vdd gnd _1690_ _1690__bF$buf5 BUFX4
XBUFX4_309 vdd gnd _1690_ _1690__bF$buf4 BUFX4
XBUFX4_310 vdd gnd _1690_ _1690__bF$buf3 BUFX4
XBUFX4_311 vdd gnd _1690_ _1690__bF$buf2 BUFX4
XBUFX4_312 vdd gnd _1690_ _1690__bF$buf1 BUFX4
XBUFX4_313 vdd gnd _1690_ _1690__bF$buf0 BUFX4
XBUFX4_314 vdd gnd _1035_ _1035__bF$buf10 BUFX4
XBUFX4_315 vdd gnd _1035_ _1035__bF$buf9 BUFX4
XBUFX4_316 vdd gnd _1035_ _1035__bF$buf8 BUFX4
XBUFX4_317 vdd gnd _1035_ _1035__bF$buf7 BUFX4
XBUFX4_318 vdd gnd _1035_ _1035__bF$buf6 BUFX4
XBUFX4_319 vdd gnd _1035_ _1035__bF$buf5 BUFX4
XBUFX4_320 vdd gnd _1035_ _1035__bF$buf4 BUFX4
XBUFX4_321 vdd gnd _1035_ _1035__bF$buf3 BUFX4
XBUFX4_322 vdd gnd _1035_ _1035__bF$buf2 BUFX4
XBUFX4_323 vdd gnd _1035_ _1035__bF$buf1 BUFX4
XBUFX4_324 vdd gnd _1035_ _1035__bF$buf0 BUFX4
XBUFX4_325 vdd gnd _2334__hier0_bF$buf1 _2334__bF$buf45 BUFX4
XBUFX4_326 vdd gnd _2334__hier0_bF$buf2 _2334__bF$buf44 BUFX4
XBUFX4_327 vdd gnd _2334__hier0_bF$buf3 _2334__bF$buf43 BUFX4
XBUFX4_328 vdd gnd _2334__hier0_bF$buf0 _2334__bF$buf42 BUFX4
XBUFX4_329 vdd gnd _2334__hier0_bF$buf1 _2334__bF$buf41 BUFX4
XBUFX4_330 vdd gnd _2334__hier0_bF$buf1 _2334__bF$buf40 BUFX4
XBUFX4_331 vdd gnd _2334__hier0_bF$buf3 _2334__bF$buf39 BUFX4
XBUFX4_332 vdd gnd _2334__hier0_bF$buf2 _2334__bF$buf38 BUFX4
XBUFX4_333 vdd gnd _2334__hier0_bF$buf4 _2334__bF$buf37 BUFX4
XBUFX4_334 vdd gnd _2334__hier0_bF$buf2 _2334__bF$buf36 BUFX4
XBUFX4_335 vdd gnd _2334__hier0_bF$buf3 _2334__bF$buf35 BUFX4
XBUFX4_336 vdd gnd _2334__hier0_bF$buf3 _2334__bF$buf34 BUFX4
XBUFX4_337 vdd gnd _2334__hier0_bF$buf0 _2334__bF$buf33 BUFX4
XBUFX4_338 vdd gnd _2334__hier0_bF$buf5 _2334__bF$buf32 BUFX4
XBUFX4_339 vdd gnd _2334__hier0_bF$buf4 _2334__bF$buf31 BUFX4
XBUFX4_340 vdd gnd _2334__hier0_bF$buf5 _2334__bF$buf30 BUFX4
XBUFX4_341 vdd gnd _2334__hier0_bF$buf5 _2334__bF$buf29 BUFX4
XBUFX4_342 vdd gnd _2334__hier0_bF$buf0 _2334__bF$buf28 BUFX4
XBUFX4_343 vdd gnd _2334__hier0_bF$buf2 _2334__bF$buf27 BUFX4
XBUFX4_344 vdd gnd _2334__hier0_bF$buf0 _2334__bF$buf26 BUFX4
XBUFX4_345 vdd gnd _2334__hier0_bF$buf3 _2334__bF$buf25 BUFX4
XBUFX4_346 vdd gnd _2334__hier0_bF$buf2 _2334__bF$buf24 BUFX4
XBUFX4_347 vdd gnd _2334__hier0_bF$buf4 _2334__bF$buf23 BUFX4
XBUFX4_348 vdd gnd _2334__hier0_bF$buf5 _2334__bF$buf22 BUFX4
XBUFX4_349 vdd gnd _2334__hier0_bF$buf2 _2334__bF$buf21 BUFX4
XBUFX4_350 vdd gnd _2334__hier0_bF$buf4 _2334__bF$buf20 BUFX4
XBUFX4_351 vdd gnd _2334__hier0_bF$buf1 _2334__bF$buf19 BUFX4
XBUFX4_352 vdd gnd _2334__hier0_bF$buf2 _2334__bF$buf18 BUFX4
XBUFX4_353 vdd gnd _2334__hier0_bF$buf4 _2334__bF$buf17 BUFX4
XBUFX4_354 vdd gnd _2334__hier0_bF$buf1 _2334__bF$buf16 BUFX4
XBUFX4_355 vdd gnd _2334__hier0_bF$buf5 _2334__bF$buf15 BUFX4
XBUFX4_356 vdd gnd _2334__hier0_bF$buf1 _2334__bF$buf14 BUFX4
XBUFX4_357 vdd gnd _2334__hier0_bF$buf3 _2334__bF$buf13 BUFX4
XBUFX4_358 vdd gnd _2334__hier0_bF$buf4 _2334__bF$buf12 BUFX4
XBUFX4_359 vdd gnd _2334__hier0_bF$buf0 _2334__bF$buf11 BUFX4
XBUFX4_360 vdd gnd _2334__hier0_bF$buf4 _2334__bF$buf10 BUFX4
XBUFX4_361 vdd gnd _2334__hier0_bF$buf1 _2334__bF$buf9 BUFX4
XBUFX4_362 vdd gnd _2334__hier0_bF$buf5 _2334__bF$buf8 BUFX4
XBUFX4_363 vdd gnd _2334__hier0_bF$buf2 _2334__bF$buf7 BUFX4
XBUFX4_364 vdd gnd _2334__hier0_bF$buf4 _2334__bF$buf6 BUFX4
XBUFX4_365 vdd gnd _2334__hier0_bF$buf3 _2334__bF$buf5 BUFX4
XBUFX4_366 vdd gnd _2334__hier0_bF$buf3 _2334__bF$buf4 BUFX4
XBUFX4_367 vdd gnd _2334__hier0_bF$buf0 _2334__bF$buf3 BUFX4
XBUFX4_368 vdd gnd _2334__hier0_bF$buf5 _2334__bF$buf2 BUFX4
XBUFX4_369 vdd gnd _2334__hier0_bF$buf0 _2334__bF$buf1 BUFX4
XBUFX4_370 vdd gnd _2334__hier0_bF$buf5 _2334__bF$buf0 BUFX4
XBUFX4_371 vdd gnd _1220_ _1220__bF$buf10 BUFX4
XBUFX4_372 vdd gnd _1220_ _1220__bF$buf9 BUFX4
XBUFX4_373 vdd gnd _1220_ _1220__bF$buf8 BUFX4
XBUFX4_374 vdd gnd _1220_ _1220__bF$buf7 BUFX4
XBUFX4_375 vdd gnd _1220_ _1220__bF$buf6 BUFX4
XBUFX4_376 vdd gnd _1220_ _1220__bF$buf5 BUFX4
XBUFX4_377 vdd gnd _1220_ _1220__bF$buf4 BUFX4
XBUFX4_378 vdd gnd _1220_ _1220__bF$buf3 BUFX4
XBUFX4_379 vdd gnd _1220_ _1220__bF$buf2 BUFX4
XBUFX4_380 vdd gnd _1220_ _1220__bF$buf1 BUFX4
XBUFX4_381 vdd gnd _1220_ _1220__bF$buf0 BUFX4
XBUFX4_382 vdd gnd _1123_ _1123__bF$buf7 BUFX4
XBUFX4_383 vdd gnd _1123_ _1123__bF$buf6 BUFX4
XBUFX4_384 vdd gnd _1123_ _1123__bF$buf5 BUFX4
XBUFX4_385 vdd gnd _1123_ _1123__bF$buf4 BUFX4
XBUFX4_386 vdd gnd _1123_ _1123__bF$buf3 BUFX4
XBUFX4_387 vdd gnd _1123_ _1123__bF$buf2 BUFX4
XBUFX4_388 vdd gnd _1123_ _1123__bF$buf1 BUFX4
XBUFX4_389 vdd gnd _1123_ _1123__bF$buf0 BUFX4
XBUFX4_390 vdd gnd _2328_ _2328__bF$buf4 BUFX4
XBUFX4_391 vdd gnd _2328_ _2328__bF$buf3 BUFX4
XBUFX4_392 vdd gnd _2328_ _2328__bF$buf2 BUFX4
XBUFX4_393 vdd gnd _2328_ _2328__bF$buf1 BUFX4
XBUFX4_394 vdd gnd _2328_ _2328__bF$buf0 BUFX4
XBUFX4_395 vdd gnd _1352_ _1352__bF$buf3 BUFX4
XBUFX4_396 vdd gnd _1352_ _1352__bF$buf2 BUFX4
XBUFX4_397 vdd gnd _1352_ _1352__bF$buf1 BUFX4
XBUFX4_398 vdd gnd _1352_ _1352__bF$buf0 BUFX4
XBUFX4_399 vdd gnd address[5] address[5_bF$buf3] BUFX4
XBUFX4_400 vdd gnd address[5] address[5_bF$buf2] BUFX4
XBUFX4_401 vdd gnd address[5] address[5_bF$buf1] BUFX4
XBUFX4_402 vdd gnd address[5] address[5_bF$buf0] BUFX4
XBUFX4_403 vdd gnd _1478_ _1478__bF$buf5 BUFX4
XBUFX4_404 vdd gnd _1478_ _1478__bF$buf4 BUFX4
XBUFX4_405 vdd gnd _1478_ _1478__bF$buf3 BUFX4
XBUFX4_406 vdd gnd _1478_ _1478__bF$buf2 BUFX4
XBUFX4_407 vdd gnd _1478_ _1478__bF$buf1 BUFX4