* XSpice netlist created from SPICE and liberty sources by spi2xspice.py
*SPICE netlist created from BLIF module Turn_Controller by blif2BSpice
.subckt Turn_Controller a_vdd a_gnd a_clock a_ped_Hori_Interrupt a_ped_Vert_Interrupt a_police_Interrupt a_traffic_Street_0_0_ a_traffic_Street_0_1_ a_traffic_Street_0_2_ a_traffic_Street_0_3_ a_traffic_Street_1_0_ a_traffic_Street_1_1_ a_traffic_Street_1_2_ a_traffic_Street_1_3_ a_address_0_ a_address_1_ a_address_2_ a_address_3_ a_address_4_ a_address_5_ a_address_6_ a_read_Write a_enable a_street a_north_South_0_ a_north_South_1_ a_west_East_0_ a_west_East_1_ a_pedestrian_Hori_Street a_pedestrian_Vert_Street a_traffic_Street_0_ a_traffic_Street_1_ a_traffic_Street_2_ a_traffic_Street_3_
ABUFX4_1 [clock] clock_hier0_bF$buf9 d_lut_BUFX4
ABUFX4_2 [clock] clock_hier0_bF$buf8 d_lut_BUFX4
ABUFX4_3 [clock] clock_hier0_bF$buf7 d_lut_BUFX4
ABUFX4_4 [clock] clock_hier0_bF$buf6 d_lut_BUFX4
ABUFX4_5 [clock] clock_hier0_bF$buf5 d_lut_BUFX4
ABUFX4_6 [clock] clock_hier0_bF$buf4 d_lut_BUFX4
ABUFX4_7 [clock] clock_hier0_bF$buf3 d_lut_BUFX4
ABUFX4_8 [clock] clock_hier0_bF$buf2 d_lut_BUFX4
ABUFX4_9 [clock] clock_hier0_bF$buf1 d_lut_BUFX4
ABUFX4_10 [clock] clock_hier0_bF$buf0 d_lut_BUFX4
ABUFX4_11 [address_1_] address_1__hier0_bF$buf5 d_lut_BUFX4
ABUFX4_12 [address_1_] address_1__hier0_bF$buf4 d_lut_BUFX4
ABUFX4_13 [address_1_] address_1__hier0_bF$buf3 d_lut_BUFX4
ABUFX4_14 [address_1_] address_1__hier0_bF$buf2 d_lut_BUFX4
ABUFX4_15 [address_1_] address_1__hier0_bF$buf1 d_lut_BUFX4
ABUFX4_16 [address_1_] address_1__hier0_bF$buf0 d_lut_BUFX4
ABUFX4_17 [address_0_] address_0__hier0_bF$buf7 d_lut_BUFX4
ABUFX4_18 [address_0_] address_0__hier0_bF$buf6 d_lut_BUFX4
ABUFX4_19 [address_0_] address_0__hier0_bF$buf5 d_lut_BUFX4
ABUFX4_20 [address_0_] address_0__hier0_bF$buf4 d_lut_BUFX4
ABUFX4_21 [address_0_] address_0__hier0_bF$buf3 d_lut_BUFX4
ABUFX4_22 [address_0_] address_0__hier0_bF$buf2 d_lut_BUFX4
ABUFX4_23 [address_0_] address_0__hier0_bF$buf1 d_lut_BUFX4
ABUFX4_24 [address_0_] address_0__hier0_bF$buf0 d_lut_BUFX4
ABUFX4_25 [_2334_] _2334__hier0_bF$buf5 d_lut_BUFX4
ABUFX4_26 [_2334_] _2334__hier0_bF$buf4 d_lut_BUFX4
ABUFX4_27 [_2334_] _2334__hier0_bF$buf3 d_lut_BUFX4
ABUFX4_28 [_2334_] _2334__hier0_bF$buf2 d_lut_BUFX4
ABUFX4_29 [_2334_] _2334__hier0_bF$buf1 d_lut_BUFX4
ABUFX4_30 [_2334_] _2334__hier0_bF$buf0 d_lut_BUFX4
ABUFX4_31 [_2330_] _2330__bF$buf10 d_lut_BUFX4
ABUFX4_32 [_2330_] _2330__bF$buf9 d_lut_BUFX4
ABUFX4_33 [_2330_] _2330__bF$buf8 d_lut_BUFX4
ABUFX4_34 [_2330_] _2330__bF$buf7 d_lut_BUFX4
ABUFX4_35 [_2330_] _2330__bF$buf6 d_lut_BUFX4
ABUFX4_36 [_2330_] _2330__bF$buf5 d_lut_BUFX4
ABUFX4_37 [_2330_] _2330__bF$buf4 d_lut_BUFX4
ABUFX4_38 [_2330_] _2330__bF$buf3 d_lut_BUFX4
ABUFX4_39 [_2330_] _2330__bF$buf2 d_lut_BUFX4
ABUFX4_40 [_2330_] _2330__bF$buf1 d_lut_BUFX4
ABUFX4_41 [_2330_] _2330__bF$buf0 d_lut_BUFX4
ABUFX4_42 [_1216_] _1216__bF$buf4 d_lut_BUFX4
ABUFX4_43 [_1216_] _1216__bF$buf3 d_lut_BUFX4
ABUFX4_44 [_1216_] _1216__bF$buf2 d_lut_BUFX4
ABUFX4_45 [_1216_] _1216__bF$buf1 d_lut_BUFX4
ABUFX4_46 [_1216_] _1216__bF$buf0 d_lut_BUFX4
ABUFX4_47 [address_4_] address_4_bF$buf4_ d_lut_BUFX4
ABUFX4_48 [address_4_] address_4_bF$buf3_ d_lut_BUFX4
ABUFX4_49 [address_4_] address_4_bF$buf2_ d_lut_BUFX4
ABUFX4_50 [address_4_] address_4_bF$buf1_ d_lut_BUFX4
ABUFX4_51 [address_4_] address_4_bF$buf0_ d_lut_BUFX4
ABUFX4_52 [_1310_] _1310__bF$buf3 d_lut_BUFX4
ABUFX4_53 [_1310_] _1310__bF$buf2 d_lut_BUFX4
ABUFX4_54 [_1310_] _1310__bF$buf1 d_lut_BUFX4
ABUFX4_55 [_1310_] _1310__bF$buf0 d_lut_BUFX4
ABUFX4_56 [_1116_] _1116__bF$buf6 d_lut_BUFX4
ABUFX4_57 [_1116_] _1116__bF$buf5 d_lut_BUFX4
ABUFX4_58 [_1116_] _1116__bF$buf4 d_lut_BUFX4
ABUFX4_59 [_1116_] _1116__bF$buf3 d_lut_BUFX4
ABUFX4_60 [_1116_] _1116__bF$buf2 d_lut_BUFX4
ABUFX4_61 [_1116_] _1116__bF$buf1 d_lut_BUFX4
ABUFX4_62 [_1116_] _1116__bF$buf0 d_lut_BUFX4
ACLKBUF1_1 [clock_hier0_bF$buf9] clock_bF$buf102 d_lut_CLKBUF1
ACLKBUF1_2 [clock_hier0_bF$buf8] clock_bF$buf101 d_lut_CLKBUF1
ACLKBUF1_3 [clock_hier0_bF$buf7] clock_bF$buf100 d_lut_CLKBUF1
ACLKBUF1_4 [clock_hier0_bF$buf6] clock_bF$buf99 d_lut_CLKBUF1
ACLKBUF1_5 [clock_hier0_bF$buf5] clock_bF$buf98 d_lut_CLKBUF1
ACLKBUF1_6 [clock_hier0_bF$buf4] clock_bF$buf97 d_lut_CLKBUF1
ACLKBUF1_7 [clock_hier0_bF$buf3] clock_bF$buf96 d_lut_CLKBUF1
ACLKBUF1_8 [clock_hier0_bF$buf2] clock_bF$buf95 d_lut_CLKBUF1
ACLKBUF1_9 [clock_hier0_bF$buf1] clock_bF$buf94 d_lut_CLKBUF1
ACLKBUF1_10 [clock_hier0_bF$buf0] clock_bF$buf93 d_lut_CLKBUF1
ACLKBUF1_11 [clock_hier0_bF$buf9] clock_bF$buf92 d_lut_CLKBUF1
ACLKBUF1_12 [clock_hier0_bF$buf8] clock_bF$buf91 d_lut_CLKBUF1
ACLKBUF1_13 [clock_hier0_bF$buf7] clock_bF$buf90 d_lut_CLKBUF1
ACLKBUF1_14 [clock_hier0_bF$buf6] clock_bF$buf89 d_lut_CLKBUF1
ACLKBUF1_15 [clock_hier0_bF$buf5] clock_bF$buf88 d_lut_CLKBUF1
ACLKBUF1_16 [clock_hier0_bF$buf4] clock_bF$buf87 d_lut_CLKBUF1
ACLKBUF1_17 [clock_hier0_bF$buf3] clock_bF$buf86 d_lut_CLKBUF1
ACLKBUF1_18 [clock_hier0_bF$buf2] clock_bF$buf85 d_lut_CLKBUF1
ACLKBUF1_19 [clock_hier0_bF$buf1] clock_bF$buf84 d_lut_CLKBUF1
ACLKBUF1_20 [clock_hier0_bF$buf0] clock_bF$buf83 d_lut_CLKBUF1
ACLKBUF1_21 [clock_hier0_bF$buf9] clock_bF$buf82 d_lut_CLKBUF1
ACLKBUF1_22 [clock_hier0_bF$buf8] clock_bF$buf81 d_lut_CLKBUF1
ACLKBUF1_23 [clock_hier0_bF$buf7] clock_bF$buf80 d_lut_CLKBUF1
ACLKBUF1_24 [clock_hier0_bF$buf6] clock_bF$buf79 d_lut_CLKBUF1
ACLKBUF1_25 [clock_hier0_bF$buf5] clock_bF$buf78 d_lut_CLKBUF1
ACLKBUF1_26 [clock_hier0_bF$buf4] clock_bF$buf77 d_lut_CLKBUF1
ACLKBUF1_27 [clock_hier0_bF$buf3] clock_bF$buf76 d_lut_CLKBUF1
ACLKBUF1_28 [clock_hier0_bF$buf2] clock_bF$buf75 d_lut_CLKBUF1
ACLKBUF1_29 [clock_hier0_bF$buf1] clock_bF$buf74 d_lut_CLKBUF1
ACLKBUF1_30 [clock_hier0_bF$buf0] clock_bF$buf73 d_lut_CLKBUF1
ACLKBUF1_31 [clock_hier0_bF$buf9] clock_bF$buf72 d_lut_CLKBUF1
ACLKBUF1_32 [clock_hier0_bF$buf8] clock_bF$buf71 d_lut_CLKBUF1
ACLKBUF1_33 [clock_hier0_bF$buf7] clock_bF$buf70 d_lut_CLKBUF1
ACLKBUF1_34 [clock_hier0_bF$buf6] clock_bF$buf69 d_lut_CLKBUF1
ACLKBUF1_35 [clock_hier0_bF$buf5] clock_bF$buf68 d_lut_CLKBUF1
ACLKBUF1_36 [clock_hier0_bF$buf4] clock_bF$buf67 d_lut_CLKBUF1
ACLKBUF1_37 [clock_hier0_bF$buf3] clock_bF$buf66 d_lut_CLKBUF1
ACLKBUF1_38 [clock_hier0_bF$buf2] clock_bF$buf65 d_lut_CLKBUF1
ACLKBUF1_39 [clock_hier0_bF$buf1] clock_bF$buf64 d_lut_CLKBUF1
ACLKBUF1_40 [clock_hier0_bF$buf0] clock_bF$buf63 d_lut_CLKBUF1
ACLKBUF1_41 [clock_hier0_bF$buf9] clock_bF$buf62 d_lut_CLKBUF1
ACLKBUF1_42 [clock_hier0_bF$buf8] clock_bF$buf61 d_lut_CLKBUF1
ACLKBUF1_43 [clock_hier0_bF$buf7] clock_bF$buf60 d_lut_CLKBUF1
ACLKBUF1_44 [clock_hier0_bF$buf6] clock_bF$buf59 d_lut_CLKBUF1
ACLKBUF1_45 [clock_hier0_bF$buf5] clock_bF$buf58 d_lut_CLKBUF1
ACLKBUF1_46 [clock_hier0_bF$buf4] clock_bF$buf57 d_lut_CLKBUF1
ACLKBUF1_47 [clock_hier0_bF$buf3] clock_bF$buf56 d_lut_CLKBUF1
ACLKBUF1_48 [clock_hier0_bF$buf2] clock_bF$buf55 d_lut_CLKBUF1
ACLKBUF1_49 [clock_hier0_bF$buf1] clock_bF$buf54 d_lut_CLKBUF1
ACLKBUF1_50 [clock_hier0_bF$buf0] clock_bF$buf53 d_lut_CLKBUF1
ACLKBUF1_51 [clock_hier0_bF$buf9] clock_bF$buf52 d_lut_CLKBUF1
ACLKBUF1_52 [clock_hier0_bF$buf8] clock_bF$buf51 d_lut_CLKBUF1
ACLKBUF1_53 [clock_hier0_bF$buf7] clock_bF$buf50 d_lut_CLKBUF1
ACLKBUF1_54 [clock_hier0_bF$buf6] clock_bF$buf49 d_lut_CLKBUF1
ACLKBUF1_55 [clock_hier0_bF$buf5] clock_bF$buf48 d_lut_CLKBUF1
ACLKBUF1_56 [clock_hier0_bF$buf4] clock_bF$buf47 d_lut_CLKBUF1
ACLKBUF1_57 [clock_hier0_bF$buf3] clock_bF$buf46 d_lut_CLKBUF1
ACLKBUF1_58 [clock_hier0_bF$buf2] clock_bF$buf45 d_lut_CLKBUF1
ACLKBUF1_59 [clock_hier0_bF$buf1] clock_bF$buf44 d_lut_CLKBUF1
ACLKBUF1_60 [clock_hier0_bF$buf0] clock_bF$buf43 d_lut_CLKBUF1
ACLKBUF1_61 [clock_hier0_bF$buf9] clock_bF$buf42 d_lut_CLKBUF1
ACLKBUF1_62 [clock_hier0_bF$buf8] clock_bF$buf41 d_lut_CLKBUF1
ACLKBUF1_63 [clock_hier0_bF$buf7] clock_bF$buf40 d_lut_CLKBUF1
ACLKBUF1_64 [clock_hier0_bF$buf6] clock_bF$buf39 d_lut_CLKBUF1
ACLKBUF1_65 [clock_hier0_bF$buf5] clock_bF$buf38 d_lut_CLKBUF1
ACLKBUF1_66 [clock_hier0_bF$buf4] clock_bF$buf37 d_lut_CLKBUF1
ACLKBUF1_67 [clock_hier0_bF$buf3] clock_bF$buf36 d_lut_CLKBUF1
ACLKBUF1_68 [clock_hier0_bF$buf2] clock_bF$buf35 d_lut_CLKBUF1
ACLKBUF1_69 [clock_hier0_bF$buf1] clock_bF$buf34 d_lut_CLKBUF1
ACLKBUF1_70 [clock_hier0_bF$buf0] clock_bF$buf33 d_lut_CLKBUF1
ACLKBUF1_71 [clock_hier0_bF$buf9] clock_bF$buf32 d_lut_CLKBUF1
ACLKBUF1_72 [clock_hier0_bF$buf8] clock_bF$buf31 d_lut_CLKBUF1
ACLKBUF1_73 [clock_hier0_bF$buf7] clock_bF$buf30 d_lut_CLKBUF1
ACLKBUF1_74 [clock_hier0_bF$buf6] clock_bF$buf29 d_lut_CLKBUF1
ACLKBUF1_75 [clock_hier0_bF$buf5] clock_bF$buf28 d_lut_CLKBUF1
ACLKBUF1_76 [clock_hier0_bF$buf4] clock_bF$buf27 d_lut_CLKBUF1
ACLKBUF1_77 [clock_hier0_bF$buf3] clock_bF$buf26 d_lut_CLKBUF1
ACLKBUF1_78 [clock_hier0_bF$buf2] clock_bF$buf25 d_lut_CLKBUF1
ACLKBUF1_79 [clock_hier0_bF$buf1] clock_bF$buf24 d_lut_CLKBUF1
ACLKBUF1_80 [clock_hier0_bF$buf0] clock_bF$buf23 d_lut_CLKBUF1
ACLKBUF1_81 [clock_hier0_bF$buf9] clock_bF$buf22 d_lut_CLKBUF1
ACLKBUF1_82 [clock_hier0_bF$buf8] clock_bF$buf21 d_lut_CLKBUF1
ACLKBUF1_83 [clock_hier0_bF$buf7] clock_bF$buf20 d_lut_CLKBUF1
ACLKBUF1_84 [clock_hier0_bF$buf6] clock_bF$buf19 d_lut_CLKBUF1
ACLKBUF1_85 [clock_hier0_bF$buf5] clock_bF$buf18 d_lut_CLKBUF1
ACLKBUF1_86 [clock_hier0_bF$buf4] clock_bF$buf17 d_lut_CLKBUF1
ACLKBUF1_87 [clock_hier0_bF$buf3] clock_bF$buf16 d_lut_CLKBUF1
ACLKBUF1_88 [clock_hier0_bF$buf2] clock_bF$buf15 d_lut_CLKBUF1
ACLKBUF1_89 [clock_hier0_bF$buf1] clock_bF$buf14 d_lut_CLKBUF1
ACLKBUF1_90 [clock_hier0_bF$buf0] clock_bF$buf13 d_lut_CLKBUF1
ACLKBUF1_91 [clock_hier0_bF$buf9] clock_bF$buf12 d_lut_CLKBUF1
ACLKBUF1_92 [clock_hier0_bF$buf8] clock_bF$buf11 d_lut_CLKBUF1
ACLKBUF1_93 [clock_hier0_bF$buf7] clock_bF$buf10 d_lut_CLKBUF1
ACLKBUF1_94 [clock_hier0_bF$buf6] clock_bF$buf9 d_lut_CLKBUF1
ACLKBUF1_95 [clock_hier0_bF$buf5] clock_bF$buf8 d_lut_CLKBUF1
ACLKBUF1_96 [clock_hier0_bF$buf4] clock_bF$buf7 d_lut_CLKBUF1
ACLKBUF1_97 [clock_hier0_bF$buf3] clock_bF$buf6 d_lut_CLKBUF1
ACLKBUF1_98 [clock_hier0_bF$buf2] clock_bF$buf5 d_lut_CLKBUF1
ACLKBUF1_99 [clock_hier0_bF$buf1] clock_bF$buf4 d_lut_CLKBUF1
ACLKBUF1_100 [clock_hier0_bF$buf0] clock_bF$buf3 d_lut_CLKBUF1
ACLKBUF1_101 [clock_hier0_bF$buf9] clock_bF$buf2 d_lut_CLKBUF1
ACLKBUF1_102 [clock_hier0_bF$buf8] clock_bF$buf1 d_lut_CLKBUF1
ACLKBUF1_103 [clock_hier0_bF$buf7] clock_bF$buf0 d_lut_CLKBUF1
ABUFX4_63 [_1057_] _1057__bF$buf10 d_lut_BUFX4
ABUFX4_64 [_1057_] _1057__bF$buf9 d_lut_BUFX4
ABUFX4_65 [_1057_] _1057__bF$buf8 d_lut_BUFX4
ABUFX4_66 [_1057_] _1057__bF$buf7 d_lut_BUFX4
ABUFX4_67 [_1057_] _1057__bF$buf6 d_lut_BUFX4
ABUFX4_68 [_1057_] _1057__bF$buf5 d_lut_BUFX4
ABUFX4_69 [_1057_] _1057__bF$buf4 d_lut_BUFX4
ABUFX4_70 [_1057_] _1057__bF$buf3 d_lut_BUFX4
ABUFX4_71 [_1057_] _1057__bF$buf2 d_lut_BUFX4
ABUFX4_72 [_1057_] _1057__bF$buf1 d_lut_BUFX4
ABUFX4_73 [_1057_] _1057__bF$buf0 d_lut_BUFX4
ABUFX4_74 [address_1__hier0_bF$buf5] address_1_bF$buf44_ d_lut_BUFX4
ABUFX4_75 [address_1__hier0_bF$buf4] address_1_bF$buf43_ d_lut_BUFX4
ABUFX4_76 [address_1__hier0_bF$buf3] address_1_bF$buf42_ d_lut_BUFX4
ABUFX4_77 [address_1__hier0_bF$buf2] address_1_bF$buf41_ d_lut_BUFX4
ABUFX4_78 [address_1__hier0_bF$buf1] address_1_bF$buf40_ d_lut_BUFX4
ABUFX4_79 [address_1__hier0_bF$buf0] address_1_bF$buf39_ d_lut_BUFX4
ABUFX4_80 [address_1__hier0_bF$buf5] address_1_bF$buf38_ d_lut_BUFX4
ABUFX4_81 [address_1__hier0_bF$buf4] address_1_bF$buf37_ d_lut_BUFX4
ABUFX4_82 [address_1__hier0_bF$buf3] address_1_bF$buf36_ d_lut_BUFX4
ABUFX4_83 [address_1__hier0_bF$buf2] address_1_bF$buf35_ d_lut_BUFX4
ABUFX4_84 [address_1__hier0_bF$buf1] address_1_bF$buf34_ d_lut_BUFX4
ABUFX4_85 [address_1__hier0_bF$buf0] address_1_bF$buf33_ d_lut_BUFX4
ABUFX4_86 [address_1__hier0_bF$buf5] address_1_bF$buf32_ d_lut_BUFX4
ABUFX4_87 [address_1__hier0_bF$buf4] address_1_bF$buf31_ d_lut_BUFX4
ABUFX4_88 [address_1__hier0_bF$buf3] address_1_bF$buf30_ d_lut_BUFX4
ABUFX4_89 [address_1__hier0_bF$buf2] address_1_bF$buf29_ d_lut_BUFX4
ABUFX4_90 [address_1__hier0_bF$buf1] address_1_bF$buf28_ d_lut_BUFX4
ABUFX4_91 [address_1__hier0_bF$buf0] address_1_bF$buf27_ d_lut_BUFX4
ABUFX4_92 [address_1__hier0_bF$buf5] address_1_bF$buf26_ d_lut_BUFX4
ABUFX4_93 [address_1__hier0_bF$buf4] address_1_bF$buf25_ d_lut_BUFX4
ABUFX4_94 [address_1__hier0_bF$buf3] address_1_bF$buf24_ d_lut_BUFX4
ABUFX4_95 [address_1__hier0_bF$buf2] address_1_bF$buf23_ d_lut_BUFX4
ABUFX4_96 [address_1__hier0_bF$buf1] address_1_bF$buf22_ d_lut_BUFX4
ABUFX4_97 [address_1__hier0_bF$buf0] address_1_bF$buf21_ d_lut_BUFX4
ABUFX4_98 [address_1__hier0_bF$buf5] address_1_bF$buf20_ d_lut_BUFX4
ABUFX4_99 [address_1__hier0_bF$buf4] address_1_bF$buf19_ d_lut_BUFX4
ABUFX4_100 [address_1__hier0_bF$buf3] address_1_bF$buf18_ d_lut_BUFX4
ABUFX4_101 [address_1__hier0_bF$buf2] address_1_bF$buf17_ d_lut_BUFX4
ABUFX4_102 [address_1__hier0_bF$buf1] address_1_bF$buf16_ d_lut_BUFX4
ABUFX4_103 [address_1__hier0_bF$buf0] address_1_bF$buf15_ d_lut_BUFX4
ABUFX4_104 [address_1__hier0_bF$buf5] address_1_bF$buf14_ d_lut_BUFX4
ABUFX4_105 [address_1__hier0_bF$buf4] address_1_bF$buf13_ d_lut_BUFX4
ABUFX4_106 [address_1__hier0_bF$buf3] address_1_bF$buf12_ d_lut_BUFX4
ABUFX4_107 [address_1__hier0_bF$buf2] address_1_bF$buf11_ d_lut_BUFX4
ABUFX4_108 [address_1__hier0_bF$buf1] address_1_bF$buf10_ d_lut_BUFX4
ABUFX4_109 [address_1__hier0_bF$buf0] address_1_bF$buf9_ d_lut_BUFX4
ABUFX4_110 [address_1__hier0_bF$buf5] address_1_bF$buf8_ d_lut_BUFX4
ABUFX4_111 [address_1__hier0_bF$buf4] address_1_bF$buf7_ d_lut_BUFX4
ABUFX4_112 [address_1__hier0_bF$buf3] address_1_bF$buf6_ d_lut_BUFX4
ABUFX4_113 [address_1__hier0_bF$buf2] address_1_bF$buf5_ d_lut_BUFX4
ABUFX4_114 [address_1__hier0_bF$buf1] address_1_bF$buf4_ d_lut_BUFX4
ABUFX4_115 [address_1__hier0_bF$buf0] address_1_bF$buf3_ d_lut_BUFX4
ABUFX4_116 [address_1__hier0_bF$buf5] address_1_bF$buf2_ d_lut_BUFX4
ABUFX4_117 [address_1__hier0_bF$buf4] address_1_bF$buf1_ d_lut_BUFX4
ABUFX4_118 [address_1__hier0_bF$buf3] address_1_bF$buf0_ d_lut_BUFX4
ABUFX4_119 [_1151_] _1151__bF$buf7 d_lut_BUFX4
ABUFX4_120 [_1151_] _1151__bF$buf6 d_lut_BUFX4
ABUFX4_121 [_1151_] _1151__bF$buf5 d_lut_BUFX4
ABUFX4_122 [_1151_] _1151__bF$buf4 d_lut_BUFX4
ABUFX4_123 [_1151_] _1151__bF$buf3 d_lut_BUFX4
ABUFX4_124 [_1151_] _1151__bF$buf2 d_lut_BUFX4
ABUFX4_125 [_1151_] _1151__bF$buf1 d_lut_BUFX4
ABUFX4_126 [_1151_] _1151__bF$buf0 d_lut_BUFX4
ABUFX4_127 [_1436_] _1436__bF$buf4 d_lut_BUFX4
ABUFX4_128 [_1436_] _1436__bF$buf3 d_lut_BUFX4
ABUFX4_129 [_1436_] _1436__bF$buf2 d_lut_BUFX4
ABUFX4_130 [_1436_] _1436__bF$buf1 d_lut_BUFX4
ABUFX4_131 [_1436_] _1436__bF$buf0 d_lut_BUFX4
ABUFX4_132 [_1145_] _1145__bF$buf5 d_lut_BUFX4
ABUFX4_133 [_1145_] _1145__bF$buf4 d_lut_BUFX4
ABUFX4_134 [_1145_] _1145__bF$buf3 d_lut_BUFX4
ABUFX4_135 [_1145_] _1145__bF$buf2 d_lut_BUFX4
ABUFX4_136 [_1145_] _1145__bF$buf1 d_lut_BUFX4
ABUFX4_137 [_1145_] _1145__bF$buf0 d_lut_BUFX4
ABUFX4_138 [_1524_] _1524__bF$buf3 d_lut_BUFX4
ABUFX4_139 [_1524_] _1524__bF$buf2 d_lut_BUFX4
ABUFX4_140 [_1524_] _1524__bF$buf1 d_lut_BUFX4
ABUFX4_141 [_1524_] _1524__bF$buf0 d_lut_BUFX4
ABUFX4_142 [_1130_] _1130__bF$buf3 d_lut_BUFX4
ABUFX4_143 [_1130_] _1130__bF$buf2 d_lut_BUFX4
ABUFX4_144 [_1130_] _1130__bF$buf1 d_lut_BUFX4
ABUFX4_145 [_1130_] _1130__bF$buf0 d_lut_BUFX4
ABUFX4_146 [_2335_] _2335__bF$buf13 d_lut_BUFX4
ABUFX4_147 [_2335_] _2335__bF$buf12 d_lut_BUFX4
ABUFX4_148 [_2335_] _2335__bF$buf11 d_lut_BUFX4
ABUFX4_149 [_2335_] _2335__bF$buf10 d_lut_BUFX4
ABUFX4_150 [_2335_] _2335__bF$buf9 d_lut_BUFX4
ABUFX4_151 [_2335_] _2335__bF$buf8 d_lut_BUFX4
ABUFX4_152 [_2335_] _2335__bF$buf7 d_lut_BUFX4
ABUFX4_153 [_2335_] _2335__bF$buf6 d_lut_BUFX4
ABUFX4_154 [_2335_] _2335__bF$buf5 d_lut_BUFX4
ABUFX4_155 [_2335_] _2335__bF$buf4 d_lut_BUFX4
ABUFX4_156 [_2335_] _2335__bF$buf3 d_lut_BUFX4
ABUFX4_157 [_2335_] _2335__bF$buf2 d_lut_BUFX4
ABUFX4_158 [_2335_] _2335__bF$buf1 d_lut_BUFX4
ABUFX4_159 [_2335_] _2335__bF$buf0 d_lut_BUFX4
ABUFX4_160 [_1606_] _1606__bF$buf4 d_lut_BUFX4
ABUFX4_161 [_1606_] _1606__bF$buf3 d_lut_BUFX4
ABUFX4_162 [_1606_] _1606__bF$buf2 d_lut_BUFX4
ABUFX4_163 [_1606_] _1606__bF$buf1 d_lut_BUFX4
ABUFX4_164 [_1606_] _1606__bF$buf0 d_lut_BUFX4
ABUFX4_165 [_2329_] _2329__bF$buf6 d_lut_BUFX4
ABUFX4_166 [_2329_] _2329__bF$buf5 d_lut_BUFX4
ABUFX4_167 [_2329_] _2329__bF$buf4 d_lut_BUFX4
ABUFX4_168 [_2329_] _2329__bF$buf3 d_lut_BUFX4
ABUFX4_169 [_2329_] _2329__bF$buf2 d_lut_BUFX4
ABUFX4_170 [_2329_] _2329__bF$buf1 d_lut_BUFX4
ABUFX4_171 [_2329_] _2329__bF$buf0 d_lut_BUFX4
ABUFX4_172 [_1218_] _1218__bF$buf10 d_lut_BUFX4
ABUFX4_173 [_1218_] _1218__bF$buf9 d_lut_BUFX4
ABUFX4_174 [_1218_] _1218__bF$buf8 d_lut_BUFX4
ABUFX4_175 [_1218_] _1218__bF$buf7 d_lut_BUFX4
ABUFX4_176 [_1218_] _1218__bF$buf6 d_lut_BUFX4
ABUFX4_177 [_1218_] _1218__bF$buf5 d_lut_BUFX4
ABUFX4_178 [_1218_] _1218__bF$buf4 d_lut_BUFX4
ABUFX4_179 [_1218_] _1218__bF$buf3 d_lut_BUFX4
ABUFX4_180 [_1218_] _1218__bF$buf2 d_lut_BUFX4
ABUFX4_181 [_1218_] _1218__bF$buf1 d_lut_BUFX4
ABUFX4_182 [_1218_] _1218__bF$buf0 d_lut_BUFX4
ABUFX4_183 [_1391_] _1391__bF$buf4 d_lut_BUFX4
ABUFX4_184 [_1391_] _1391__bF$buf3 d_lut_BUFX4
ABUFX4_185 [_1391_] _1391__bF$buf2 d_lut_BUFX4
ABUFX4_186 [_1391_] _1391__bF$buf1 d_lut_BUFX4
ABUFX4_187 [_1391_] _1391__bF$buf0 d_lut_BUFX4
ABUFX4_188 [_1159_] _1159__bF$buf6 d_lut_BUFX4
ABUFX4_189 [_1159_] _1159__bF$buf5 d_lut_BUFX4
ABUFX4_190 [_1159_] _1159__bF$buf4 d_lut_BUFX4
ABUFX4_191 [_1159_] _1159__bF$buf3 d_lut_BUFX4
ABUFX4_192 [_1159_] _1159__bF$buf2 d_lut_BUFX4
ABUFX4_193 [_1159_] _1159__bF$buf1 d_lut_BUFX4
ABUFX4_194 [_1159_] _1159__bF$buf0 d_lut_BUFX4
ABUFX4_195 [_1732_] _1732__bF$buf4 d_lut_BUFX4
ABUFX4_196 [_1732_] _1732__bF$buf3 d_lut_BUFX4
ABUFX4_197 [_1732_] _1732__bF$buf2 d_lut_BUFX4
ABUFX4_198 [_1732_] _1732__bF$buf1 d_lut_BUFX4
ABUFX4_199 [_1732_] _1732__bF$buf0 d_lut_BUFX4
ABUFX4_200 [address_3_] address_3_bF$buf7_ d_lut_BUFX4
ABUFX4_201 [address_3_] address_3_bF$buf6_ d_lut_BUFX4
ABUFX4_202 [address_3_] address_3_bF$buf5_ d_lut_BUFX4
ABUFX4_203 [address_3_] address_3_bF$buf4_ d_lut_BUFX4
ABUFX4_204 [address_3_] address_3_bF$buf3_ d_lut_BUFX4
ABUFX4_205 [address_3_] address_3_bF$buf2_ d_lut_BUFX4
ABUFX4_206 [address_3_] address_3_bF$buf1_ d_lut_BUFX4
ABUFX4_207 [address_3_] address_3_bF$buf0_ d_lut_BUFX4
ABUFX4_208 [_1209_] _1209__bF$buf10 d_lut_BUFX4
ABUFX4_209 [_1209_] _1209__bF$buf9 d_lut_BUFX4
ABUFX4_210 [_1209_] _1209__bF$buf8 d_lut_BUFX4
ABUFX4_211 [_1209_] _1209__bF$buf7 d_lut_BUFX4
ABUFX4_212 [_1209_] _1209__bF$buf6 d_lut_BUFX4
ABUFX4_213 [_1209_] _1209__bF$buf5 d_lut_BUFX4
ABUFX4_214 [_1209_] _1209__bF$buf4 d_lut_BUFX4
ABUFX4_215 [_1209_] _1209__bF$buf3 d_lut_BUFX4
ABUFX4_216 [_1209_] _1209__bF$buf2 d_lut_BUFX4
ABUFX4_217 [_1209_] _1209__bF$buf1 d_lut_BUFX4
ABUFX4_218 [_1209_] _1209__bF$buf0 d_lut_BUFX4
ABUFX4_219 [address_0__hier0_bF$buf7] address_0_bF$buf72_ d_lut_BUFX4
ABUFX4_220 [address_0__hier0_bF$buf6] address_0_bF$buf71_ d_lut_BUFX4
ABUFX4_221 [address_0__hier0_bF$buf5] address_0_bF$buf70_ d_lut_BUFX4
ABUFX4_222 [address_0__hier0_bF$buf4] address_0_bF$buf69_ d_lut_BUFX4
ABUFX4_223 [address_0__hier0_bF$buf3] address_0_bF$buf68_ d_lut_BUFX4
ABUFX4_224 [address_0__hier0_bF$buf2] address_0_bF$buf67_ d_lut_BUFX4
ABUFX4_225 [address_0__hier0_bF$buf1] address_0_bF$buf66_ d_lut_BUFX4
ABUFX4_226 [address_0__hier0_bF$buf0] address_0_bF$buf65_ d_lut_BUFX4
ABUFX4_227 [address_0__hier0_bF$buf7] address_0_bF$buf64_ d_lut_BUFX4
ABUFX4_228 [address_0__hier0_bF$buf6] address_0_bF$buf63_ d_lut_BUFX4
ABUFX4_229 [address_0__hier0_bF$buf5] address_0_bF$buf62_ d_lut_BUFX4
ABUFX4_230 [address_0__hier0_bF$buf4] address_0_bF$buf61_ d_lut_BUFX4
ABUFX4_231 [address_0__hier0_bF$buf3] address_0_bF$buf60_ d_lut_BUFX4
ABUFX4_232 [address_0__hier0_bF$buf2] address_0_bF$buf59_ d_lut_BUFX4
ABUFX4_233 [address_0__hier0_bF$buf1] address_0_bF$buf58_ d_lut_BUFX4
ABUFX4_234 [address_0__hier0_bF$buf0] address_0_bF$buf57_ d_lut_BUFX4
ABUFX4_235 [address_0__hier0_bF$buf7] address_0_bF$buf56_ d_lut_BUFX4
ABUFX4_236 [address_0__hier0_bF$buf6] address_0_bF$buf55_ d_lut_BUFX4
ABUFX4_237 [address_0__hier0_bF$buf5] address_0_bF$buf54_ d_lut_BUFX4
ABUFX4_238 [address_0__hier0_bF$buf4] address_0_bF$buf53_ d_lut_BUFX4
ABUFX4_239 [address_0__hier0_bF$buf3] address_0_bF$buf52_ d_lut_BUFX4
ABUFX4_240 [address_0__hier0_bF$buf2] address_0_bF$buf51_ d_lut_BUFX4
ABUFX4_241 [address_0__hier0_bF$buf1] address_0_bF$buf50_ d_lut_BUFX4
ABUFX4_242 [address_0__hier0_bF$buf0] address_0_bF$buf49_ d_lut_BUFX4
ABUFX4_243 [address_0__hier0_bF$buf7] address_0_bF$buf48_ d_lut_BUFX4
ABUFX4_244 [address_0__hier0_bF$buf6] address_0_bF$buf47_ d_lut_BUFX4
ABUFX4_245 [address_0__hier0_bF$buf5] address_0_bF$buf46_ d_lut_BUFX4
ABUFX4_246 [address_0__hier0_bF$buf4] address_0_bF$buf45_ d_lut_BUFX4
ABUFX4_247 [address_0__hier0_bF$buf3] address_0_bF$buf44_ d_lut_BUFX4
ABUFX4_248 [address_0__hier0_bF$buf2] address_0_bF$buf43_ d_lut_BUFX4
ABUFX4_249 [address_0__hier0_bF$buf1] address_0_bF$buf42_ d_lut_BUFX4
ABUFX4_250 [address_0__hier0_bF$buf0] address_0_bF$buf41_ d_lut_BUFX4
ABUFX4_251 [address_0__hier0_bF$buf7] address_0_bF$buf40_ d_lut_BUFX4
ABUFX4_252 [address_0__hier0_bF$buf6] address_0_bF$buf39_ d_lut_BUFX4
ABUFX4_253 [address_0__hier0_bF$buf5] address_0_bF$buf38_ d_lut_BUFX4
ABUFX4_254 [address_0__hier0_bF$buf4] address_0_bF$buf37_ d_lut_BUFX4
ABUFX4_255 [address_0__hier0_bF$buf3] address_0_bF$buf36_ d_lut_BUFX4
ABUFX4_256 [address_0__hier0_bF$buf2] address_0_bF$buf35_ d_lut_BUFX4
ABUFX4_257 [address_0__hier0_bF$buf1] address_0_bF$buf34_ d_lut_BUFX4
ABUFX4_258 [address_0__hier0_bF$buf0] address_0_bF$buf33_ d_lut_BUFX4
ABUFX4_259 [address_0__hier0_bF$buf7] address_0_bF$buf32_ d_lut_BUFX4
ABUFX4_260 [address_0__hier0_bF$buf6] address_0_bF$buf31_ d_lut_BUFX4
ABUFX4_261 [address_0__hier0_bF$buf5] address_0_bF$buf30_ d_lut_BUFX4
ABUFX4_262 [address_0__hier0_bF$buf4] address_0_bF$buf29_ d_lut_BUFX4
ABUFX4_263 [address_0__hier0_bF$buf3] address_0_bF$buf28_ d_lut_BUFX4
ABUFX4_264 [address_0__hier0_bF$buf2] address_0_bF$buf27_ d_lut_BUFX4
ABUFX4_265 [address_0__hier0_bF$buf1] address_0_bF$buf26_ d_lut_BUFX4
ABUFX4_266 [address_0__hier0_bF$buf0] address_0_bF$buf25_ d_lut_BUFX4
ABUFX4_267 [address_0__hier0_bF$buf7] address_0_bF$buf24_ d_lut_BUFX4
ABUFX4_268 [address_0__hier0_bF$buf6] address_0_bF$buf23_ d_lut_BUFX4
ABUFX4_269 [address_0__hier0_bF$buf5] address_0_bF$buf22_ d_lut_BUFX4
ABUFX4_270 [address_0__hier0_bF$buf4] address_0_bF$buf21_ d_lut_BUFX4
ABUFX4_271 [address_0__hier0_bF$buf3] address_0_bF$buf20_ d_lut_BUFX4
ABUFX4_272 [address_0__hier0_bF$buf2] address_0_bF$buf19_ d_lut_BUFX4
ABUFX4_273 [address_0__hier0_bF$buf1] address_0_bF$buf18_ d_lut_BUFX4
ABUFX4_274 [address_0__hier0_bF$buf0] address_0_bF$buf17_ d_lut_BUFX4
ABUFX4_275 [address_0__hier0_bF$buf7] address_0_bF$buf16_ d_lut_BUFX4
ABUFX4_276 [address_0__hier0_bF$buf6] address_0_bF$buf15_ d_lut_BUFX4
ABUFX4_277 [address_0__hier0_bF$buf5] address_0_bF$buf14_ d_lut_BUFX4
ABUFX4_278 [address_0__hier0_bF$buf4] address_0_bF$buf13_ d_lut_BUFX4
ABUFX4_279 [address_0__hier0_bF$buf3] address_0_bF$buf12_ d_lut_BUFX4
ABUFX4_280 [address_0__hier0_bF$buf2] address_0_bF$buf11_ d_lut_BUFX4
ABUFX4_281 [address_0__hier0_bF$buf1] address_0_bF$buf10_ d_lut_BUFX4
ABUFX4_282 [address_0__hier0_bF$buf0] address_0_bF$buf9_ d_lut_BUFX4
ABUFX4_283 [address_0__hier0_bF$buf7] address_0_bF$buf8_ d_lut_BUFX4
ABUFX4_284 [address_0__hier0_bF$buf6] address_0_bF$buf7_ d_lut_BUFX4
ABUFX4_285 [address_0__hier0_bF$buf5] address_0_bF$buf6_ d_lut_BUFX4
ABUFX4_286 [address_0__hier0_bF$buf4] address_0_bF$buf5_ d_lut_BUFX4
ABUFX4_287 [address_0__hier0_bF$buf3] address_0_bF$buf4_ d_lut_BUFX4
ABUFX4_288 [address_0__hier0_bF$buf2] address_0_bF$buf3_ d_lut_BUFX4
ABUFX4_289 [address_0__hier0_bF$buf1] address_0_bF$buf2_ d_lut_BUFX4
ABUFX4_290 [address_0__hier0_bF$buf0] address_0_bF$buf1_ d_lut_BUFX4
ABUFX4_291 [address_0__hier0_bF$buf7] address_0_bF$buf0_ d_lut_BUFX4
ABUFX4_292 [_1109_] _1109__bF$buf4 d_lut_BUFX4
ABUFX4_293 [_1109_] _1109__bF$buf3 d_lut_BUFX4
ABUFX4_294 [_1109_] _1109__bF$buf2 d_lut_BUFX4
ABUFX4_295 [_1109_] _1109__bF$buf1 d_lut_BUFX4
ABUFX4_296 [_1109_] _1109__bF$buf0 d_lut_BUFX4
ABUFX4_297 [_1106_] _1106__bF$buf6 d_lut_BUFX4
ABUFX4_298 [_1106_] _1106__bF$buf5 d_lut_BUFX4
ABUFX4_299 [_1106_] _1106__bF$buf4 d_lut_BUFX4
ABUFX4_300 [_1106_] _1106__bF$buf3 d_lut_BUFX4
ABUFX4_301 [_1106_] _1106__bF$buf2 d_lut_BUFX4
ABUFX4_302 [_1106_] _1106__bF$buf1 d_lut_BUFX4
ABUFX4_303 [_1106_] _1106__bF$buf0 d_lut_BUFX4
ABUFX4_304 [_2058_] _2058__bF$buf3 d_lut_BUFX4
ABUFX4_305 [_2058_] _2058__bF$buf2 d_lut_BUFX4
ABUFX4_306 [_2058_] _2058__bF$buf1 d_lut_BUFX4
ABUFX4_307 [_2058_] _2058__bF$buf0 d_lut_BUFX4
ABUFX4_308 [_1690_] _1690__bF$buf5 d_lut_BUFX4
ABUFX4_309 [_1690_] _1690__bF$buf4 d_lut_BUFX4
ABUFX4_310 [_1690_] _1690__bF$buf3 d_lut_BUFX4
ABUFX4_311 [_1690_] _1690__bF$buf2 d_lut_BUFX4
ABUFX4_312 [_1690_] _1690__bF$buf1 d_lut_BUFX4
ABUFX4_313 [_1690_] _1690__bF$buf0 d_lut_BUFX4
ABUFX4_314 [_1035_] _1035__bF$buf10 d_lut_BUFX4
ABUFX4_315 [_1035_] _1035__bF$buf9 d_lut_BUFX4
ABUFX4_316 [_1035_] _1035__bF$buf8 d_lut_BUFX4
ABUFX4_317 [_1035_] _1035__bF$buf7 d_lut_BUFX4
ABUFX4_318 [_1035_] _1035__bF$buf6 d_lut_BUFX4
ABUFX4_319 [_1035_] _1035__bF$buf5 d_lut_BUFX4
ABUFX4_320 [_1035_] _1035__bF$buf4 d_lut_BUFX4
ABUFX4_321 [_1035_] _1035__bF$buf3 d_lut_BUFX4
ABUFX4_322 [_1035_] _1035__bF$buf2 d_lut_BUFX4
ABUFX4_323 [_1035_] _1035__bF$buf1 d_lut_BUFX4
ABUFX4_324 [_1035_] _1035__bF$buf0 d_lut_BUFX4
ABUFX4_325 [_2334__hier0_bF$buf5] _2334__bF$buf45 d_lut_BUFX4
ABUFX4_326 [_2334__hier0_bF$buf4] _2334__bF$buf44 d_lut_BUFX4
ABUFX4_327 [_2334__hier0_bF$buf3] _2334__bF$buf43 d_lut_BUFX4
ABUFX4_328 [_2334__hier0_bF$buf2] _2334__bF$buf42 d_lut_BUFX4
ABUFX4_329 [_2334__hier0_bF$buf1] _2334__bF$buf41 d_lut_BUFX4
ABUFX4_330 [_2334__hier0_bF$buf0] _2334__bF$buf40 d_lut_BUFX4
ABUFX4_331 [_2334__hier0_bF$buf5] _2334__bF$buf39 d_lut_BUFX4
ABUFX4_332 [_2334__hier0_bF$buf4] _2334__bF$buf38 d_lut_BUFX4
ABUFX4_333 [_2334__hier0_bF$buf3] _2334__bF$buf37 d_lut_BUFX4
ABUFX4_334 [_2334__hier0_bF$buf2] _2334__bF$buf36 d_lut_BUFX4
ABUFX4_335 [_2334__hier0_bF$buf1] _2334__bF$buf35 d_lut_BUFX4
ABUFX4_336 [_2334__hier0_bF$buf0] _2334__bF$buf34 d_lut_BUFX4
ABUFX4_337 [_2334__hier0_bF$buf5] _2334__bF$buf33 d_lut_BUFX4
ABUFX4_338 [_2334__hier0_bF$buf4] _2334__bF$buf32 d_lut_BUFX4
ABUFX4_339 [_2334__hier0_bF$buf3] _2334__bF$buf31 d_lut_BUFX4
ABUFX4_340 [_2334__hier0_bF$buf2] _2334__bF$buf30 d_lut_BUFX4
ABUFX4_341 [_2334__hier0_bF$buf1] _2334__bF$buf29 d_lut_BUFX4
ABUFX4_342 [_2334__hier0_bF$buf0] _2334__bF$buf28 d_lut_BUFX4
ABUFX4_343 [_2334__hier0_bF$buf5] _2334__bF$buf27 d_lut_BUFX4
ABUFX4_344 [_2334__hier0_bF$buf4] _2334__bF$buf26 d_lut_BUFX4
ABUFX4_345 [_2334__hier0_bF$buf3] _2334__bF$buf25 d_lut_BUFX4
ABUFX4_346 [_2334__hier0_bF$buf2] _2334__bF$buf24 d_lut_BUFX4
ABUFX4_347 [_2334__hier0_bF$buf1] _2334__bF$buf23 d_lut_BUFX4
ABUFX4_348 [_2334__hier0_bF$buf0] _2334__bF$buf22 d_lut_BUFX4
ABUFX4_349 [_2334__hier0_bF$buf5] _2334__bF$buf21 d_lut_BUFX4
ABUFX4_350 [_2334__hier0_bF$buf4] _2334__bF$buf20 d_lut_BUFX4
ABUFX4_351 [_2334__hier0_bF$buf3] _2334__bF$buf19 d_lut_BUFX4
ABUFX4_352 [_2334__hier0_bF$buf2] _2334__bF$buf18 d_lut_BUFX4
ABUFX4_353 [_2334__hier0_bF$buf1] _2334__bF$buf17 d_lut_BUFX4
ABUFX4_354 [_2334__hier0_bF$buf0] _2334__bF$buf16 d_lut_BUFX4
ABUFX4_355 [_2334__hier0_bF$buf5] _2334__bF$buf15 d_lut_BUFX4
ABUFX4_356 [_2334__hier0_bF$buf4] _2334__bF$buf14 d_lut_BUFX4
ABUFX4_357 [_2334__hier0_bF$buf3] _2334__bF$buf13 d_lut_BUFX4
ABUFX4_358 [_2334__hier0_bF$buf2] _2334__bF$buf12 d_lut_BUFX4
ABUFX4_359 [_2334__hier0_bF$buf1] _2334__bF$buf11 d_lut_BUFX4
ABUFX4_360 [_2334__hier0_bF$buf0] _2334__bF$buf10 d_lut_BUFX4
ABUFX4_361 [_2334__hier0_bF$buf5] _2334__bF$buf9 d_lut_BUFX4
ABUFX4_362 [_2334__hier0_bF$buf4] _2334__bF$buf8 d_lut_BUFX4
ABUFX4_363 [_2334__hier0_bF$buf3] _2334__bF$buf7 d_lut_BUFX4
ABUFX4_364 [_2334__hier0_bF$buf2] _2334__bF$buf6 d_lut_BUFX4
ABUFX4_365 [_2334__hier0_bF$buf1] _2334__bF$buf5 d_lut_BUFX4
ABUFX4_366 [_2334__hier0_bF$buf0] _2334__bF$buf4 d_lut_BUFX4
ABUFX4_367 [_2334__hier0_bF$buf5] _2334__bF$buf3 d_lut_BUFX4
ABUFX4_368 [_2334__hier0_bF$buf4] _2334__bF$buf2 d_lut_BUFX4
ABUFX4_369 [_2334__hier0_bF$buf3] _2334__bF$buf1 d_lut_BUFX4
ABUFX4_370 [_2334__hier0_bF$buf2] _2334__bF$buf0 d_lut_BUFX4
ABUFX4_371 [_1220_] _1220__bF$buf10 d_lut_BUFX4
ABUFX4_372 [_1220_] _1220__bF$buf9 d_lut_BUFX4
ABUFX4_373 [_1220_] _1220__bF$buf8 d_lut_BUFX4
ABUFX4_374 [_1220_] _1220__bF$buf7 d_lut_BUFX4
ABUFX4_375 [_1220_] _1220__bF$buf6 d_lut_BUFX4
ABUFX4_376 [_1220_] _1220__bF$buf5 d_lut_BUFX4
ABUFX4_377 [_1220_] _1220__bF$buf4 d_lut_BUFX4
ABUFX4_378 [_1220_] _1220__bF$buf3 d_lut_BUFX4
ABUFX4_379 [_1220_] _1220__bF$buf2 d_lut_BUFX4
ABUFX4_380 [_1220_] _1220__bF$buf1 d_lut_BUFX4
ABUFX4_381 [_1220_] _1220__bF$buf0 d_lut_BUFX4
ABUFX4_382 [_1123_] _1123__bF$buf7 d_lut_BUFX4
ABUFX4_383 [_1123_] _1123__bF$buf6 d_lut_BUFX4
ABUFX4_384 [_1123_] _1123__bF$buf5 d_lut_BUFX4
ABUFX4_385 [_1123_] _1123__bF$buf4 d_lut_BUFX4
ABUFX4_386 [_1123_] _1123__bF$buf3 d_lut_BUFX4
ABUFX4_387 [_1123_] _1123__bF$buf2 d_lut_BUFX4
ABUFX4_388 [_1123_] _1123__bF$buf1 d_lut_BUFX4
ABUFX4_389 [_1123_] _1123__bF$buf0 d_lut_BUFX4
ABUFX4_390 [_2328_] _2328__bF$buf4 d_lut_BUFX4
ABUFX4_391 [_2328_] _2328__bF$buf3 d_lut_BUFX4
ABUFX4_392 [_2328_] _2328__bF$buf2 d_lut_BUFX4
ABUFX4_393 [_2328_] _2328__bF$buf1 d_lut_BUFX4
ABUFX4_394 [_2328_] _2328__bF$buf0 d_lut_BUFX4
ABUFX4_395 [_1352_] _1352__bF$buf3 d_lut_BUFX4
ABUFX4_396 [_1352_] _1352__bF$buf2 d_lut_BUFX4
ABUFX4_397 [_1352_] _1352__bF$buf1 d_lut_BUFX4
ABUFX4_398 [_1352_] _1352__bF$buf0 d_lut_BUFX4
ABUFX4_399 [address_5_] address_5_bF$buf3_ d_lut_BUFX4
ABUFX4_400 [address_5_] address_5_bF$buf2_ d_lut_BUFX4
ABUFX4_401 [address_5_] address_5_bF$buf1_ d_lut_BUFX4
ABUFX4_402 [address_5_] address_5_bF$buf0_ d_lut_BUFX4
ABUFX4_403 [_1478_] _1478__bF$buf5 d_lut_BUFX4
ABUFX4_404 [_1478_] _1478__bF$buf4 d_lut_BUFX4
ABUFX4_405 [_1478_] _1478__bF$buf3 d_lut_BUFX4
ABUFX4_406 [_1478_] _1478__bF$buf2 d_lut_BUFX4