*SPEF "IEEE 1481.1999"
*DESIGN "Turn_Controller"
*DATE "22:41:12 Friday December 04, 2020"
*VENDOR "unknown"
*PROGRAM "qrouter"
*VERSION "unknown"
*DESIGN_FLOW "qflow"
*DIVIDER /
*DELIMITER :
*BUS_DELIMITER <>
*T_UNIT 1 PS
*C_UNIT 1 FF
*R_UNIT 1 OHM
*L_UNIT 1 HENRY

*NAME_MAP
*1 _1050_
*2 NAND2X1_2
*3 NAND2X1_363
*4 OAI21X1_1571
*5 OAI21X1_1570
*6 NAND2X1_362
*7 NAND2X1_86
*8 OAI21X1_368
*9 NAND2X1_88
*10 OAI21X1_370
*11 NAND2X1_87
*12 OAI21X1_369
*13 OAI21X1_371
*14 NAND2X1_89
*15 OAI21X1_1569
*16 NAND2X1_361
*17 OAI21X1_1
*18 NAND2X1_3
*19 _1064_
*20 NAND2X1_4
*21 NAND2X1_7
*22 NAND2X1_91
*23 OAI21X1_373
*24 NAND2X1_92
*25 OAI21X1_374
*26 NAND2X1_90
*27 OAI21X1_372
*28 OAI21X1_3
*29 NAND2X1_6
*30 NAND2X1_8
*31 OAI21X1_5
*32 OAI21X1_375
*33 NAND2X1_93
*34 OAI21X1_2
*35 NAND2X1_5
*36 OAI21X1_4
*37 _1096_
*38 NAND3X1_4
*39 OAI21X1_8
*40 NAND2X1_13
*41 OAI21X1_379
*42 NAND2X1_97
*43 OAI21X1_377
*44 NAND2X1_95
*45 OAI21X1_378
*46 NAND2X1_94
*47 OAI21X1_376
*48 NAND2X1_11
*49 OAI21X1_6
*50 NAND2X1_14
*51 OAI21X1_9
*52 NAND2X1_96
*53 NAND2X1_12
*54 OAI21X1_7
*55 _1117_
*56 NOR2X1_16
*57 NOR2X1_17
*58 AOI21X1_1
*59 NOR2X1_19
*60 AOI21X1_3
*61 NOR2X1_277
*62 AOI21X1_180
*63 AOI21X1_181
*64 NOR2X1_278
*65 NOR2X1_276
*66 AOI21X1_179
*67 AOI21X1_4
*68 NOR2X1_20
*69 AOI21X1_178
*70 NOR2X1_18
*71 AOI21X1_2
*72 NOR2X1_275
*73 _1131_
*74 NOR2X1_22
*75 NOR2X1_280
*76 AOI21X1_183
*77 NAND2X1_20
*78 NOR2X1_23
*79 AOI21X1_5
*80 OAI21X1_388
*81 NAND2X1_98
*82 AOI21X1_6
*83 NOR2X1_24
*84 AOI21X1_184
*85 NOR2X1_281
*86 OAI21X1_18
*87 NOR2X1_279
*88 AOI21X1_7
*89 NOR2X1_25
*90 AOI21X1_182
*91 _1146_
*92 NOR2X1_27
*93 AOI21X1_8
*94 NOR2X1_28
*95 NOR2X1_283
*96 AOI21X1_186
*97 NOR2X1_30
*98 AOI21X1_10
*99 NOR2X1_29
*100 AOI21X1_9
*101 AOI21X1_185
*102 NOR2X1_282
*103 AOI21X1_187
*104 NOR2X1_284
*105 AOI21X1_11
*106 NOR2X1_31
*107 AOI21X1_188
*108 NOR2X1_285
*109 _1184_
*110 NOR2X1_39
*111 NOR2X1_292
*112 AOI21X1_195
*113 NOR2X1_290
*114 NOR2X1_40
*115 NOR2X1_291
*116 AOI21X1_15
*117 AOI21X1_193
*118 AOI21X1_17
*119 AOI21X1_16
*120 NOR2X1_41
*121 NOR2X1_293
*122 AOI21X1_196
*123 AOI21X1_18
*124 NOR2X1_43
*125 NOR2X1_42
*126 AOI21X1_194
*127 _1194_
*128 NOR2X1_44
*129 NOR2X1_295
*130 AOI21X1_198
*131 NOR2X1_296
*132 AOI21X1_199
*133 NOR2X1_48
*134 AOI21X1_22
*135 NOR2X1_45
*136 AOI21X1_19
*137 NOR2X1_46
*138 AOI21X1_20
*139 NOR2X1_294
*140 AOI21X1_197
*141 NOR2X1_297
*142 AOI21X1_200
*143 NOR2X1_47
*144 AOI21X1_21
*145 _1244_
*146 NOR2X1_65
*147 NOR2X1_68
*148 AOI21X1_34
*149 NOR2X1_66
*150 AOI21X1_32
*151 AOI21X1_35
*152 NOR2X1_69
*153 NOR2X1_635
*154 AOI21X1_523
*155 NOR2X1_633
*156 AOI21X1_521
*157 NOR2X1_632
*158 AOI21X1_520
*159 AOI21X1_522
*160 NOR2X1_634
*161 AOI21X1_33
*162 NOR2X1_67
*163 _1261_
*164 NOR2X1_74
*165 AOI21X1_38
*166 NOR2X1_75
*167 NAND2X1_33
*168 AOI21X1_526
*169 NOR2X1_638
*170 AOI21X1_527
*171 NOR2X1_639
*172 OAI21X1_91
*173 NOR2X1_76
*174 AOI21X1_39
*175 NOR2X1_637
*176 AOI21X1_525
*177 OAI21X1_92
*178 NAND2X1_34
*179 OAI21X1_1289
*180 NAND2X1_353
*181 _1320_
*182 NOR2X1_91
*183 NOR2X1_648
*184 AOI21X1_536
*185 AOI21X1_537
*186 AOI21X1_534
*187 NOR2X1_646
*188 NOR2X1_647
*189 AOI21X1_535
*190 AOI21X1_49
*191 NOR2X1_93
*192 NOR2X1_94
*193 AOI21X1_50
*194 NOR2X1_649
*195 NOR2X1_95
*196 AOI21X1_51
*197 AOI21X1_48
*198 NOR2X1_92
*199 _1330_
*200 NOR2X1_96
*201 NOR2X1_99
*202 AOI21X1_54
*203 NOR2X1_651
*204 OAI21X1_1322
*205 NAND2X1_354
*206 AOI21X1_538
*207 NOR2X1_650
*208 NOR2X1_97
*209 AOI21X1_52
*210 NOR2X1_652
*211 AOI21X1_540
*212 NOR2X1_100
*213 AOI21X1_55
*214 AOI21X1_53
*215 NOR2X1_98
*216 AOI21X1_539
*217 _1372_
*218 NOR2X1_106
*219 AOI21X1_60
*220 NOR2X1_108
*221 NOR2X1_656
*222 AOI21X1_545
*223 NOR2X1_657
*224 AOI21X1_61
*225 NOR2X1_655
*226 NOR2X1_107
*227 AOI21X1_59
*228 AOI21X1_543
*229 NOR2X1_109
*230 AOI21X1_544
*231 OAI21X1_133
*232 NAND2X1_47
*233 NAND2X1_355
*234 OAI21X1_1331
*235 _1383_
*236 NOR2X1_110
*237 NOR2X1_660
*238 AOI21X1_548
*239 AOI21X1_546
*240 NOR2X1_658
*241 NOR2X1_111
*242 NOR2X1_114
*243 AOI21X1_65
*244 NOR2X1_661
*245 AOI21X1_549
*246 AOI21X1_62
*247 NOR2X1_659
*248 AOI21X1_547
*249 NOR2X1_113
*250 NOR2X1_112
*251 AOI21X1_63
*252 AOI21X1_64
*253 _1392_
*254 NOR2X1_117
*255 AOI21X1_67
*256 NOR2X1_119
*257 AOI21X1_550
*258 NOR2X1_662
*259 NAND2X1_49
*260 OAI21X1_142
*261 AOI21X1_551
*262 NOR2X1_663
*263 OAI21X1_1340
*264 AOI21X1_66
*265 NOR2X1_118
*266 NAND2X1_50
*267 NAND2X1_356
*268 OAI21X1_143
*269 OAI21X1_1341
*270 NAND2X1_357
*271 _1419_
*272 NOR2X1_125
*273 NOR2X1_667
*274 AOI21X1_555
*275 NOR2X1_668
*276 AOI21X1_556
*277 NOR2X1_666
*278 AOI21X1_554
*279 AOI21X1_75
*280 NOR2X1_129
*281 AOI21X1_74
*282 NOR2X1_128
*283 NOR2X1_127
*284 AOI21X1_73
*285 AOI21X1_72
*286 NOR2X1_126
*287 AOI21X1_557
*288 NOR2X1_669
*289 _1451_
*290 NOR2X1_135
*291 NOR2X1_139
*292 AOI21X1_82
*293 AOI21X1_81
*294 NOR2X1_138
*295 NOR2X1_137
*296 AOI21X1_80
*297 NOR2X1_672
*298 AOI21X1_560
*299 AOI21X1_562
*300 NOR2X1_674
*301 AOI21X1_559
*302 NOR2X1_671
*303 NOR2X1_673
*304 AOI21X1_561
*305 NOR2X1_136
*306 AOI21X1_79
*307 _1555_
*308 NOR2X1_180
*309 NOR2X1_700
*310 AOI21X1_588
*311 NOR2X1_182
*312 AOI21X1_112
*313 NOR2X1_181
*314 AOI21X1_111
*315 AOI21X1_589
*316 NOR2X1_701
*317 MUX2X1_109
*318 NOR2X1_183
*319 AOI21X1_113
*320 NOR2X1_698
*321 AOI21X1_586
*322 AOI21X1_587
*323 NOR2X1_699
*324 INVX1_219
*325 _1579_
*326 NOR2X1_186
*327 NAND2X1_360
*328 OAI21X1_1456
*329 AOI21X1_590
*330 NOR2X1_702
*331 AOI21X1_116
*332 NOR2X1_189
*333 NOR2X1_190
*334 AOI21X1_117
*335 NOR2X1_187
*336 AOI21X1_114
*337 NOR2X1_188
*338 AOI21X1_115
*339 OAI21X1_1454
*340 NAND2X1_358
*341 NAND2X1_359
*342 OAI21X1_1455
*343 _1589_
*344 NOR2X1_196
*345 AOI21X1_593
*346 AOI21X1_124
*347 NOR2X1_198
*348 NOR2X1_704
*349 AOI21X1_592
*350 AOI21X1_123
*351 AOI21X1_594
*352 NOR2X1_706
*353 NOR2X1_199
*354 AOI21X1_591
*355 NOR2X1_703
*356 NOR2X1_200
*357 AOI21X1_125
*358 NOR2X1_197
*359 AOI21X1_122
*360 NOR2X1_705
*361 _1653_
*362 NOR2X1_222
*363 AOI21X1_143
*364 NOR2X1_226
*365 AOI21X1_606
*366 AOI21X1_605
*367 NOR2X1_717
*368 NOR2X1_718
*369 NOR2X1_715
*370 AOI21X1_603
*371 NOR2X1_716
*372 AOI21X1_604
*373 NOR2X1_223
*374 AOI21X1_140
*375 NOR2X1_225
*376 AOI21X1_142
*377 NOR2X1_224
*378 AOI21X1_141
*379 _1663_
*380 NOR2X1_227
*381 NOR2X1_722
*382 AOI21X1_610
*383 AOI21X1_609
*384 NOR2X1_721
*385 NOR2X1_231
*386 AOI21X1_147
*387 AOI21X1_145
*388 NOR2X1_229
*389 NOR2X1_720
*390 AOI21X1_608
*391 NOR2X1_228
*392 AOI21X1_144
*393 NOR2X1_719
*394 AOI21X1_607
*395 NOR2X1_230
*396 AOI21X1_146
*397 _1683_
*398 NOR2X1_234
*399 NOR2X1_724
*400 AOI21X1_612
*401 AOI21X1_611
*402 NOR2X1_723
*403 AOI21X1_151
*404 NOR2X1_238
*405 NOR2X1_235
*406 AOI21X1_148
*407 AOI21X1_150
*408 NOR2X1_237
*409 NOR2X1_236
*410 AOI21X1_149
*411 AOI21X1_613
*412 NOR2X1_725
*413 NOR2X1_726
*414 AOI21X1_614
*415 _1715_
*416 NOR2X1_250
*417 NOR2X1_730
*418 AOI21X1_618
*419 NOR2X1_251
*420 AOI21X1_160
*421 NOR2X1_253
*422 AOI21X1_620
*423 AOI21X1_162
*424 NOR2X1_731
*425 AOI21X1_619
*426 AOI21X1_163
*427 NOR2X1_254
*428 NOR2X1_732
*429 AOI21X1_161
*430 NOR2X1_252
*431 NOR2X1_733
*432 AOI21X1_621
*433 _1747_
*434 NOR2X1_265
*435 NOR2X1_267
*436 AOI21X1_171
*437 AOI21X1_172
*438 NOR2X1_268
*439 AOI21X1_626
*440 NOR2X1_738
*441 NOR2X1_736
*442 AOI21X1_624
*443 AOI21X1_170
*444 NOR2X1_266
*445 NOR2X1_737
*446 AOI21X1_625
*447 NOR2X1_269
*448 AOI21X1_173
*449 AOI21X1_627
*450 NOR2X1_739
*451 _2335__bF_buf13
*452 BUFX4_146
*453 AOI21X1_428
*454 AOI21X1_348
*455 OAI21X1_1222
*456 OAI21X1_794
*457 OAI21X1_1136
*458 OAI21X1_620
*459 OAI21X1_867
*460 OAI21X1_877
*461 OAI21X1_875
*462 AOI21X1_347
*463 AOI21X1_350
*464 OAI21X1_797
*465 AOI21X1_287
*466 OAI21X1_617
*467 OAI21X1_977
*468 _2335__bF_buf12
*469 BUFX4_147
*470 OAI21X1_776
*471 OAI21X1_902
*472 OAI21X1_960
*473 OAI21X1_1060
*474 OAI21X1_957
*475 OAI21X1_1153
*476 OAI21X1_897
*477 OAI21X1_1249
*478 OAI21X1_667
*479 OAI21X1_599
*480 OAI21X1_938
*481 AOI21X1_331
*482 OAI21X1_1062
*483 OAI21X1_1068
*484 OAI21X1_673
*485 _2335__bF_buf11
*486 BUFX4_148
*487 OAI21X1_578
*488 AOI21X1_248
*489 AOI21X1_262
*490 OAI21X1_1186
*491 OAI21X1_582
*492 AOI21X1_264
*493 AOI21X1_335
*494 OAI21X1_1115
*495 OAI21X1_755
*496 AOI21X1_334
*497 OAI21X1_581
*498 AOI21X1_263
*499 OAI21X1_1113
*500 OAI21X1_1206
*501 OAI21X1_579
*502 _2335__bF_buf10
*503 BUFX4_149
*504 OAI21X1_882
*505 OAI21X1_985
*506 OAI21X1_1050
*507 OAI21X1_983
*508 OAI21X1_815
*509 OAI21X1_1144
*510 OAI21X1_1228
*511 OAI21X1_1038
*512 OAI21X1_638
*513 OAI21X1_799
*514 OAI21X1_809
*515 OAI21X1_1240
*516 NOR2X1_377
*517 AOI21X1_257
*518 OAI21X1_728
*519 _2335__bF_buf9
*520 BUFX4_150
*521 AOI21X1_477
*522 OAI21X1_922
*523 OAI21X1_585
*524 OAI21X1_1123
*525 OAI21X1_1002
*526 OAI21X1_766
*527 OAI21X1_1218
*528 AOI21X1_337
*529 AOI21X1_440
*530 AOI21X1_301
*531 OAI21X1_1214
*532 OAI21X1_1120
*533 OAI21X1_1026
*534 AOI21X1_252
*535 OAI21X1_924
*536 _2335__bF_buf8
*537 BUFX4_151
*538 OAI21X1_1086
*539 AOI21X1_463
*540 OAI21X1_573
*541 OAI21X1_1209
*542 AOI21X1_472
*543 OAI21X1_1108
*544 OAI21X1_1251
*545 OAI21X1_602
*546 NOR2X1_366
*547 OAI21X1_665
*548 OAI21X1_849
*549 AOI21X1_373
*550 AOI21X1_374
*551 OAI21X1_576
*552 OAI21X1_852
*553 _2335__bF_buf7
*554 BUFX4_152
*555 AOI21X1_364
*556 AOI21X1_436
*557 OAI21X1_1030
*558 OAI21X1_1085
*559 AOI21X1_462
*560 NOR2X1_446
*561 OAI21X1_706
*562 OAI21X1_695
*563 OAI21X1_904
*564 OAI21X1_737
*565 OAI21X1_1246
*566 AOI21X1_372
*567 OAI21X1_1204
*568 OAI21X1_944
*569 OAI21X1_845
*570 _2335__bF_buf6
*571 BUFX4_153
*572 OAI21X1_680
*573 OAI21X1_1212
*574 NAND3X1_74
*575 OAI21X1_759
*576 OAI21X1_677
*577 OAI21X1_1118
*578 NOR2X1_566
*579 NOR2X1_564
*580 NOR2X1_482
*581 AOI21X1_412
*582 OAI21X1_888
*583 AOI21X1_271
*584 OAI21X1_560
*585 AOI21X1_380
*586 OAI21X1_793
*587 _2335__bF_buf5
*588 BUFX4_154
*589 OAI21X1_764
*590 OAI21X1_1181
*591 OAI21X1_685
*592 OAI21X1_587
*593 OAI21X1_1019
*594 OAI21X1_1216
*595 OAI21X1_613
*596 AOI21X1_284
*597 OAI21X1_614
*598 AOI21X1_285
*599 OAI21X1_796
*600 AOI21X1_349
*601 AOI21X1_286
*602 OAI21X1_616
*603 OAI21X1_821
*604 _2335__bF_buf4
*605 BUFX4_155
*606 OAI21X1_1253
*607 NOR2X1_484
*608 NOR2X1_434
*609 NOR2X1_517
*610 OAI21X1_1013
*611 NOR2X1_432
*612 OAI21X1_894
*613 NOR2X1_515
*614 AOI21X1_345
*615 OAI21X1_660
*616 OAI21X1_1079
*617 AOI21X1_510
*618 OAI21X1_1260
*619 OAI21X1_657
*620 AOI21X1_493
*621 _2335__bF_buf3
*622 BUFX4_156
*623 OAI21X1_1100
*624 OAI21X1_712
*625 OAI21X1_899
*626 AOI21X1_469
*627 AOI21X1_508
*628 AOI21X1_482
*629 AOI21X1_383
*630 AOI21X1_354
*631 OAI21X1_990
*632 OAI21X1_1237
*633 OAI21X1_806
*634 AOI21X1_312
*635 OAI21X1_1156
*636 OAI21X1_1244
*637 OAI21X1_1194
*638 _1160_
*639 NOR2X1_33
*640 NOR2X1_289
*641 NOR2X1_287
*642 AOI21X1_190
*643 AOI21X1_14
*644 NOR2X1_36
*645 AOI21X1_13
*646 NOR2X1_35
*647 NOR2X1_288
*648 AOI21X1_191
*649 MUX2X1_25
*650 AOI21X1_12
*651 NOR2X1_34
*652 AOI21X1_189
*653 NOR2X1_286
*654 AOI21X1_192
*655 _1234_
*656 NOR2X1_60
*657 NOR2X1_63
*658 AOI21X1_30
*659 AOI21X1_31
*660 NOR2X1_64
*661 AOI21X1_519
*662 MUX2X1_271
*663 NOR2X1_62
*664 AOI21X1_29
*665 NOR2X1_630
*666 AOI21X1_518
*667 AOI21X1_517
*668 NOR2X1_629
*669 NOR2X1_61
*670 AOI21X1_28
*671 NOR2X1_631
*672 _1471_
*673 NOR2X1_145
*674 AOI21X1_86
*675 NOR2X1_146
*676 MUX2X1_94
*677 AOI21X1_568
*678 NOR2X1_680
*679 AOI21X1_569
*680 NOR2X1_681
*681 AOI21X1_566
*682 NOR2X1_678
*683 NOR2X1_679
*684 AOI21X1_567
*685 NOR2X1_147
*686 AOI21X1_87
*687 AOI21X1_88
*688 NOR2X1_148
*689 _1483_
*690 NOR2X1_153
*691 AOI21X1_573
*692 NOR2X1_685
*693 NOR2X1_156
*694 AOI21X1_93
*695 AOI21X1_94
*696 NOR2X1_157
*697 AOI21X1_572
*698 NOR2X1_684
*699 MUX2X1_339
*700 AOI21X1_92
*701 NOR2X1_686
*702 AOI21X1_574
*703 NOR2X1_155
*704 AOI21X1_91
*705 NOR2X1_154
*706 _1503_
*707 NOR2X1_158
*708 AOI21X1_98
*709 NOR2X1_162
*710 MUX2X1_340
*711 NOR2X1_689
*712 AOI21X1_577
*713 NOR2X1_159
*714 AOI21X1_95
*715 NOR2X1_687
*716 AOI21X1_575
*717 NOR2X1_688
*718 AOI21X1_576
*719 AOI21X1_96
*720 NOR2X1_160
*721 NOR2X1_161
*722 AOI21X1_97
*723 _1513_
*724 NOR2X1_163
*725 AOI21X1_101
*726 NOR2X1_166
*727 AOI21X1_100
*728 NOR2X1_165
*729 AOI21X1_578
*730 NOR2X1_690
*731 AOI21X1_580
*732 NOR2X1_692
*733 AOI21X1_99
*734 NOR2X1_164
*735 AOI21X1_102
*736 NOR2X1_167
*737 NOR2X1_691
*738 AOI21X1_579
*739 MUX2X1_341
*740 _2335_
*741 INVX8_32
*742 BUFX4_151
*743 BUFX4_148
*744 BUFX4_152
*745 BUFX4_155
*746 BUFX4_153
*747 BUFX4_150
*748 BUFX4_154
*749 BUFX4_157
*750 BUFX4_146
*751 BUFX4_149
*752 BUFX4_159
*753 BUFX4_147
*754 BUFX4_156
*755 BUFX4_158
*756 _2335__bF_buf2
*757 BUFX4_157
*758 OAI21X1_1224
*759 OAI21X1_1021
*760 OAI21X1_1090
*761 OAI21X1_1138
*762 OAI21X1_701
*763 OAI21X1_741
*764 OAI21X1_1183
*765 AOI21X1_327
*766 OAI21X1_742
*767 OAI21X1_554
*768 OAI21X1_699
*769 OAI21X1_823
*770 OAI21X1_743
*771 OAI21X1_933
*772 _2335__bF_buf1
*773 BUFX4_158
*774 OAI21X1_1104
*775 OAI21X1_1189
*776 OAI21X1_719
*777 OAI21X1_839
*778 OAI21X1_1046
*779 NOR2X1_413
*780 OAI21X1_1032
*781 OAI21X1_837
*782 OAI21X1_1098
*783 AOI21X1_497
*784 OAI21X1_652
*785 OAI21X1_716
*786 OAI21X1_631
*787 OAI21X1_1197
*788 _2335__bF_buf0
*789 BUFX4_159
*790 OAI21X1_1233
*791 OAI21X1_1053
*792 AOI21X1_480
*793 OAI21X1_1141
*794 AOI21X1_290
*795 AOI21X1_505
*796 AOI21X1_356
*797 AOI21X1_355
*798 OAI21X1_812
*799 OAI21X1_1235
*800 AOI21X1_381
*801 OAI21X1_864
*802 OAI21X1_556
*803 OAI21X1_1040
*804 _1278_
*805 NOR2X1_79
*806 AOI21X1_41
*807 NOR2X1_80
*808 AOI21X1_529
*809 NOR2X1_641
*810 MUX2X1_283
*811 AOI21X1_42
*812 NOR2X1_81
*813 NOR2X1_82
*814 AOI21X1_43
*815 NOR2X1_83
*816 MUX2X1_284
*817 AOI21X1_44
*818 AOI21X1_528
*819 NOR2X1_640
*820 _1409_
*821 NOR2X1_120
*822 MUX2X1_320
*823 AOI21X1_552
*824 NOR2X1_664
*825 NOR2X1_124
*826 AOI21X1_71
*827 NOR2X1_665
*828 AOI21X1_553
*829 NOR2X1_121
*830 AOI21X1_68
*831 NOR2X1_123
*832 AOI21X1_70
*833 MUX2X1_319
*834 AOI21X1_69
*835 NOR2X1_122
*836 _1535_
*837 NOR2X1_173
*838 NOR2X1_175
*839 AOI21X1_107
*840 NOR2X1_696
*841 AOI21X1_584
*842 AOI21X1_582
*843 NOR2X1_694
*844 MUX2X1_102
*845 AOI21X1_106
*846 NOR2X1_174
*847 MUX2X1_349
*848 AOI21X1_583
*849 NOR2X1_695
*850 NOR2X1_176
*851 AOI21X1_108
*852 _1607_
*853 NOR2X1_202
*854 AOI21X1_598
*855 NOR2X1_710
*856 MUX2X1_118
*857 MUX2X1_119
*858 NOR2X1_203
*859 AOI21X1_126
*860 NOR2X1_707
*861 AOI21X1_595
*862 AOI21X1_596
*863 NOR2X1_708
*864 NOR2X1_204
*865 AOI21X1_127
*866 AOI21X1_597
*867 NOR2X1_709
*868 _1705_
*869 NOR2X1_245
*870 NOR2X1_728
*871 AOI21X1_616
*872 NOR2X1_246
*873 AOI21X1_156
*874 NOR2X1_249
*875 AOI21X1_159
*876 MUX2X1_392
*877 AOI21X1_158
*878 NOR2X1_248
*879 MUX2X1_393
*880 AOI21X1_157
*881 NOR2X1_247
*882 AOI21X1_617
*883 NOR2X1_729
*884 _1998_
*885 NOR3X1_7
*886 NAND2X1_168
*887 NAND3X1_47
*888 AOI21X1_229
*889 AOI21X1_230
*890 NAND3X1_49
*891 NAND2X1_136
*892 NAND2X1_121
*893 NAND2X1_160
*894 NAND3X1_45
*895 NAND2X1_147
*896 NAND2X1_158
*897 NAND3X1_46
*898 NAND2X1_118
*899 NAND2X1_164
*900 _5_
*901 NAND2X1_120
*902 NAND3X1_67
*903 AND2X2_19
*904 NOR2X1_358
*905 INVX4_9
*906 NOR2X1_354
*907 AOI21X1_240
*908 AOI22X1_8
*909 NAND3X1_61
*910 NAND3X1_44
*911 NAND3X1_63
*912 NAND2X1_155
*913 NAND3X1_55
*914 OAI21X1_530
*915 DFFPOSX1_394
*916 _2330__bF_buf10
*917 BUFX4_31
*918 AOI21X1_393
*919 OAI21X1_730
*920 NAND2X1_313
*921 OAI21X1_1242
*922 OAI21X1_811
*923 NAND2X1_196
*924 OAI21X1_992
*925 MUX2X1_178
*926 OAI21X1_633
*927 MUX2X1_196
*928 OAI21X1_635
*929 AOI21X1_296
*930 OAI21X1_636
*931 _1209__bF_buf10
*932 BUFX4_208
*933 AOI21X1_91
*934 MUX2X1_95
*935 OAI21X1_217
*936 OAI21X1_193
*937 AOI21X1_99
*938 NAND2X1_100
*939 NAND3X1_6
*940 AOI22X1_1
*941 NAND2X1_104
*942 NOR2X1_347
*943 NOR2X1_301
*944 AND2X2_2
*945 OAI21X1_209
*946 _1209__bF_buf9
*947 BUFX4_209
*948 OAI21X1_430
*949 MUX2X1_150
*950 OAI21X1_372
*951 OAI21X1_422
*952 AOI21X1_197
*953 MUX2X1_170
*954 MUX2X1_158
*955 MUX2X1_154
*956 AOI21X1_185
*957 OAI21X1_381
*958 MUX2X1_142
*959 MUX2X1_162
*960 OAI21X1_368
*961 _1209__bF_buf8
*962 BUFX4_210
*963 AOI21X1_134
*964 OAI21X1_249
*965 AOI21X1_114
*966 OAI21X1_241
*967 MUX2X1_114
*968 AOI21X1_118
*969 AOI21X1_106
*970 AOI21X1_122
*971 AOI21X1_109
*972 MUX2X1_103
*973 OAI21X1_233
*974 MUX2X1_110
*975 MUX2X1_97
*976 _1035__bF_buf10
*977 BUFX4_314
*978 OAI21X1_9
*979 AOI21X1_622
*980 AOI21X1_627
*981 OAI21X1_1568
*982 MUX2X1_407
*983 AOI21X1_516
*984 OAI21X1_1288
*985 AOI21X1_524
*986 MUX2X1_4
*987 MUX2X1_411
*988 OAI21X1_1280
*989 OAI21X1_5
*990 MUX2X1_16
*991 _1035__bF_buf9
*992 BUFX4_315
*993 MUX2X1_368
*994 OAI21X1_1445
*995 AOI21X1_540
*996 OAI21X1_50
*997 MUX2X1_304
*998 MUX2X1_300
*999 AOI21X1_594
*1000 MUX2X1_29
*1001 AOI21X1_18
*1002 OAI21X1_1453
*1003 OAI21X1_1464
*1004 MUX2X1_360
*1005 MUX2X1_364
*1006 _1035__bF_buf8
*1007 BUFX4_316
*1008 MUX2X1_318
*1009 OAI21X1_1339
*1010 OAI21X1_1313
*1011 AOI21X1_542
*1012 MUX2X1_312
*1013 OAI21X1_1330
*1014 MUX2X1_308
*1015 OAI21X1_42
*1016 AOI21X1_549
*1017 AOI21X1_22
*1018 OAI21X1_66
*1019 OAI21X1_58
*1020 MUX2X1_32
*1021 _1035__bF_buf7
*1022 BUFX4_317
*1023 OAI21X1_1321
*1024 MUX2X1_284
*1025 MUX2X1_377
*1026 OAI21X1_1429
*1027 MUX2X1_345
*1028 AOI21X1_584
*1029 MUX2X1_353
*1030 MUX2X1_348
*1031 AOI21X1_574
*1032 OAI21X1_1437
*1033 MUX2X1_356
*1034 AOI21X1_589
*1035 MUX2X1_278
*1036 _1222__bF_buf10
*1037 BUFX4_465
*1038 OAI21X1_239
*1039 MUX2X1_45
*1040 MUX2X1_106
*1041 OAI21X1_215
*1042 OAI21X1_199
*1043 AOI21X1_139
*1044 OAI21X1_287
*1045 OAI21X1_279
*1046 OAI21X1_207
*1047 AOI21X1_94
*1048 AOI21X1_90
*1049 OAI21X1_271
*1050 AOI21X1_147
*1051 _1222__bF_buf9
*1052 BUFX4_466
*1053 AOI21X1_121
*1054 MUX2X1_117
*1055 AOI21X1_108
*1056 OAI21X1_255
*1057 AOI21X1_117
*1058 OAI21X1_231
*1059 OAI21X1_247
*1060 AOI21X1_105
*1061 MUX2X1_108
*1062 AOI21X1_113
*1063 AOI21X1_44
*1064 MUX2X1_100
*1065 AOI21X1_125
*1066 _1222__bF_buf8
*1067 BUFX4_467
*1068 OAI21X1_167
*1069 MUX2X1_127
*1070 OAI21X1_191
*1071 AOI21X1_83
*1072 AOI21X1_85
*1073 AOI21X1_88
*1074 MUX2X1_131
*1075 AOI21X1_151
*1076 AOI21X1_163
*1077 OAI21X1_335
*1078 OAI21X1_343
*1079 MUX2X1_135
*1080 AOI21X1_75
*1081 _1362_
*1082 NOR2X1_102
*1083 AOI21X1_541
*1084 NOR2X1_653
*1085 NOR2X1_104
*1086 AOI21X1_542
*1087 NOR2X1_654
*1088 AOI21X1_58
*1089 NOR2X1_105
*1090 NOR2X1_103
*1091 AOI21X1_56
*1092 MUX2X1_314
*1093 MUX2X1_313
*1094 AOI21X1_57
*1095 MUX2X1_75
*1096 _1611_
*1097 NOR2X1_205
*1098 MUX2X1_371
*1099 AOI21X1_128
*1100 NOR2X1_206
*1101 NOR2X1_208
*1102 AOI21X1_130
*1103 NOR2X1_711
*1104 NOR2X1_207
*1105 AOI21X1_129
*1106 NOR2X1_209
*1107 MUX2X1_370
*1108 AOI21X1_131
*1109 MUX2X1_369
*1110 AOI21X1_599
*1111 _1621_
*1112 NOR2X1_213
*1113 AOI21X1_134
*1114 NOR2X1_214
*1115 MUX2X1_377
*1116 MUX2X1_375
*1117 NOR2X1_215
*1118 AOI21X1_135
*1119 MUX2X1_376
*1120 NOR2X1_217
*1121 AOI21X1_137
*1122 AOI21X1_601
*1123 NOR2X1_713
*1124 NOR2X1_216
*1125 AOI21X1_136
*1126 _1695_
*1127 NOR2X1_240
*1128 AOI21X1_615
*1129 NOR2X1_727
*1130 MUX2X1_389
*1131 NOR2X1_243
*1132 NOR2X1_241
*1133 AOI21X1_152
*1134 AOI21X1_154
*1135 AOI21X1_153
*1136 NOR2X1_244
*1137 AOI21X1_155
*1138 NOR2X1_242
*1139 MUX2X1_391
*1140 MUX2X1_390
*1141 _1737_
*1142 NOR2X1_260
*1143 AOI21X1_167
*1144 NOR2X1_262
*1145 AOI21X1_166
*1146 NOR2X1_261
*1147 AOI21X1_169
*1148 NOR2X1_264
*1149 MUX2X1_403
*1150 MUX2X1_402
*1151 NOR2X1_735
*1152 AOI21X1_623
*1153 MUX2X1_401
*1154 NOR2X1_263
*1155 AOI21X1_168
*1156 _2330__bF_buf9
*1157 BUFX4_32
*1158 OAI21X1_896
*1159 OAI21X1_891
*1160 AOI21X1_389
*1161 NAND3X1_80
*1162 OAI21X1_1075
*1163 OAI21X1_659
*1164 NAND2X1_209
*1165 MUX2X1_215
*1166 OAI21X1_1081
*1167 NAND2X1_331
*1168 OAI21X1_1261
*1169 MUX2X1_260
*1170 _2330__bF_buf8
*1171 BUFX4_33
*1172 OAI21X1_1103
*1173 NAND2X1_345
*1174 OAI21X1_1196
*1175 AOI21X1_313
*1176 OAI21X1_715
*1177 OAI21X1_1155
*1178 OAI21X1_940
*1179 NAND2X1_327
*1180 OAI21X1_1064
*1181 OAI21X1_901
*1182 OAI21X1_1070
*1183 OAI21X1_959
*1184 _2330__bF_buf7
*1185 BUFX4_34
*1186 NAND2X1_295
*1187 NOR2X1_487
*1188 NOR2X1_378
*1189 NAND2X1_263
*1190 OAI21X1_795
*1191 OAI21X1_1122
*1192 NAND2X1_178
*1193 OAI21X1_682
*1194 OAI21X1_855
*1195 AND2X2_34
*1196 AOI21X1_376
*1197 OAI21X1_854
*1198 _2330__bF_buf6
*1199 BUFX4_35
*1200 OAI21X1_997
*1201 OAI21X1_937
*1202 OAI21X1_1248
*1203 AOI21X1_332
*1204 OAI21X1_936
*1205 AOI21X1_407
*1206 OAI21X1_601
*1207 OAI21X1_939
*1208 AOI21X1_408
*1209 OAI21X1_669
*1210 NAND2X1_211
*1211 OAI21X1_574
*1212 _2330__bF_buf5
*1213 BUFX4_36
*1214 NOR3X1_14
*1215 OAI21X1_869
*1216 NAND2X1_191
*1217 OAI21X1_987
*1218 OAI21X1_1052
*1219 AOI21X1_295
*1220 OAI21X1_637
*1221 AND2X2_24
*1222 OAI21X1_1055
*1223 OAI21X1_1146
*1224 NAND3X1_81
*1225 NAND3X1_72
*1226 _2330__bF_buf4
*1227 BUFX4_37
*1228 OAI21X1_781
*1229 OAI21X1_675
*1230 OAI21X1_842
*1231 OAI21X1_841
*1232 MUX2X1_235
*1233 NOR2X1_526
*1234 OAI21X1_1106
*1235 OAI21X1_1199
*1236 NAND2X1_320
*1237 OAI21X1_1048
*1238 NAND2X1_226
*1239 NAND2X1_298
*1240 _2330__bF_buf3
*1241 BUFX4_38
*1242 OAI21X1_829
*1243 NAND2X1_251
*1244 OAI21X1_739
*1245 AOI21X1_390
*1246 NAND2X1_290
*1247 NAND3X1_79
*1248 OAI21X1_906
*1249 MUX2X1_258
*1250 MUX2X1_181
*1251 OAI21X1_928
*1252 NAND2X1_174
*1253 NAND2X1_277
*1254 _2330__bF_buf2
*1255 BUFX4_39
*1256 NOR2X1_570
*1257 NOR2X1_497
*1258 OAI21X1_769
*1259 NOR2X1_546
*1260 OAI21X1_1220
*1261 OAI21X1_1003
*1262 OAI22X1_44
*1263 NOR2X1_623
*1264 OAI22X1_37
*1265 OAI21X1_923
*1266 OAI21X1_586
*1267 OAI22X1_5
*1268 _2330__bF_buf1
*1269 BUFX4_40
*1270 OAI21X1_1117
*1271 OAI21X1_1208
*1272 OAI21X1_1188
*1273 NOR2X1_584
*1274 MUX2X1_203
*1275 NAND3X1_71
*1276 OAI21X1_1109
*1277 OAI21X1_1211
*1278 NAND2X1_256
*1279 OAI21X1_758
*1280 NAND2X1_234
*1281 OAI21X1_583
*1282 _2330__bF_buf0
*1283 BUFX4_41
*1284 NAND3X1_78
*1285 NAND2X1_347
*1286 OAI21X1_1185
*1287 OAI21X1_1135
*1288 OAI21X1_1140
*1289 NOR2X1_476
*1290 NOR2X1_419
*1291 OAI21X1_703
*1292 OAI21X1_744
*1293 MUX2X1_256
*1294 NAND3X1_76
*1295 OAI21X1_615
*1296 _1057__bF_buf10
*1297 BUFX4_63
*1298 MUX2X1_277
*1299 MUX2X1_283
*1300 MUX2X1_406
*1301 OAI21X1_1558
*1302 OAI21X1_1566
*1303 OAI21X1_1550
*1304 AOI21X1_623
*1305 OAI21X1_1347
*1306 OAI21X1_1510
*1307 OAI21X1_1295
*1308 MUX2X1_286
*1309 MUX2X1_383
*1310 _1057__bF_buf9
*1311 BUFX4_64
*1312 OAI21X1_1270
*1313 OAI21X1_1286
*1314 AOI21X1_522
*1315 MUX2X1_274
*1316 OAI21X1_15
*1317 AOI21X1_7
*1318 OAI21X1_32
*1319 OAI21X1_24
*1320 AOI21X1_10
*1321 AOI21X1_13
*1322 AOI21X1_3
*1323 OAI21X1_1278
*1324 _1057__bF_buf8
*1325 BUFX4_65
*1326 AOI21X1_626
*1327 MUX2X1_270
*1328 MUX2X1_271
*1329 AOI21X1_514
*1330 MUX2X1_330
*1331 OAI21X1_1387
*1332 MUX2X1_333
*1333 AOI21X1_568
*1334 AOI21X1_561
*1335 MUX2X1_336
*1336 OAI21X1_1371
*1337 OAI21X1_1379
*1338 _1057__bF_buf7
*1339 BUFX4_66
*1340 MUX2X1_347
*1341 OAI21X1_1427
*1342 OAI21X1_1435
*1343 MUX2X1_355
*1344 MUX2X1_352
*1345 OAI21X1_1319
*1346 AOI21X1_588
*1347 OAI21X1_1486
*1348 AOI21X1_526
*1349 MUX2X1_281
*1350 MUX2X1_379
*1351 AOI21X1_583
*1352 _1057__bF_buf6
*1353 BUFX4_67
*1354 OAI21X1_1363
*1355 MUX2X1_323
*1356 OAI21X1_1303
*1357 AOI21X1_556
*1358 OAI21X1_1542
*1359 OAI21X1_1534
*1360 MUX2X1_387
*1361 AOI21X1_620
*1362 MUX2X1_396
*1363 MUX2X1_327
*1364 AOI21X1_532
*1365 AOI21X1_613
*1366 _1057__bF_buf5
*1367 BUFX4_68
*1368 MUX2X1_338
*1369 MUX2X1_303
*1370 MUX2X1_292
*1371 MUX2X1_344
*1372 OAI21X1_1311
*1373 AOI21X1_536
*1374 OAI21X1_1462
*1375 MUX2X1_367
*1376 MUX2X1_363
*1377 MUX2X1_299
*1378 AOI21X1_593
*1379 OAI21X1_1451
*1380 _1057__bF_buf4
*1381 BUFX4_69
*1382 OAI21X1_1328
*1383 OAI21X1_1571
*1384 AOI21X1_548
*1385 OAI21X1_1337
*1386 OAI21X1_64
*1387 AOI21X1_545
*1388 AOI21X1_21
*1389 MUX2X1_317
*1390 MUX2X1_31
*1391 OAI21X1_56
*1392 MUX2X1_307
*1393 AOI21X1_541
*1394 _1218__bF_buf10
*1395 BUFX4_172
*1396 MUX2X1_98
*1397 OAI21X1_227
*1398 OAI21X1_235
*1399 MUX2X1_104
*1400 MUX2X1_102
*1401 AOI21X1_104
*1402 AOI21X1_110
*1403 MUX2X1_96
*1404 MUX2X1_109
*1405 OAI21X1_251
*1406 AOI21X1_115
*1407 MUX2X1_111
*1408 _1218__bF_buf9
*1409 BUFX4_173
*1410 OAI21X1_369
*1411 AOI21X1_190
*1412 OAI21X1_383
*1413 MUX2X1_163
*1414 AOI21X1_179
*1415 OAI21X1_78
*1416 AOI21X1_33
*1417 MUX2X1_35
*1418 OAI21X1_70
*1419 OAI21X1_86
*1420 AOI21X1_29
*1421 MUX2X1_33
*1422 _1218__bF_buf8
*1423 BUFX4_174
*1424 OAI21X1_219
*1425 OAI21X1_203
*1426 AOI21X1_202
*1427 NAND2X1_100
*1428 NAND2X1_103
*1429 AOI21X1_92
*1430 OAI21X1_195
*1431 OAI21X1_267
*1432 OAI21X1_283
*1433 OAI21X1_211
*1434 AOI21X1_96
*1435 AOI21X1_100
*1436 _1218__bF_buf7
*1437 BUFX4_175
*1438 MUX2X1_139
*1439 AOI21X1_63
*1440 AOI21X1_42
*1441 MUX2X1_40
*1442 AOI21X1_167
*1443 AOI21X1_164
*1444 OAI21X1_347
*1445 MUX2X1_88
*1446 OAI21X1_355
*1447 AOI21X1_171
*1448 OAI21X1_363
*1449 MUX2X1_37
*1450 _1218__bF_buf6
*1451 BUFX4_176
*1452 OAI21X1_299
*1453 OAI21X1_323
*1454 MUX2X1_85
*1455 OAI21X1_147
*1456 OAI21X1_155
*1457 AOI21X1_157
*1458 OAI21X1_291
*1459 AOI21X1_145
*1460 OAI21X1_315
*1461 AOI21X1_141
*1462 AOI21X1_153
*1463 AOI21X1_69
*1464 _1218__bF_buf5
*1465 BUFX4_177
*1466 MUX2X1_115
*1467 AOI21X1_119
*1468 AOI21X1_135
*1469 AOI21X1_129
*1470 AOI21X1_132
*1471 AOI21X1_126
*1472 AOI21X1_123
*1473 MUX2X1_167
*1474 AOI21X1_194
*1475 OAI21X1_416
*1476 OAI21X1_259
*1477 OAI21X1_243
*1478 _1209__bF_buf7
*1479 BUFX4_211
*1480 OAI21X1_353
*1481 OAI21X1_361
*1482 AOI21X1_174
*1483 MUX2X1_138
*1484 MUX2X1_136
*1485 AOI21X1_166
*1486 OAI21X1_145
*1487 MUX2X1_124
*1488 OAI21X1_305
*1489 MUX2X1_84
*1490 AOI21X1_38
*1491 MUX2X1_39
*1492 _1209__bF_buf6
*1493 BUFX4_212
*1494 OAI21X1_126
*1495 OAI21X1_135
*1496 MUX2X1_67
*1497 MUX2X1_71
*1498 AOI21X1_56
*1499 OAI21X1_406
*1500 MUX2X1_76
*1501 MUX2X1_166
*1502 AOI21X1_62
*1503 AOI21X1_193
*1504 OAI21X1_414
*1505 AOI21X1_59
*1506 _1209__bF_buf5
*1507 BUFX4_213
*1508 MUX2X1_146
*1509 OAI21X1_376
*1510 OAI21X1_84
*1511 AOI21X1_32
*1512 OAI21X1_76
*1513 AOI21X1_36
*1514 AOI21X1_28
*1515 AOI21X1_189
*1516 AOI21X1_182
*1517 AOI21X1_178
*1518 OAI21X1_390
*1519 OAI21X1_398
*1520 _1209__bF_buf4
*1521 BUFX4_214
*1522 MUX2X1_80
*1523 OAI21X1_177
*1524 OAI21X1_169
*1525 OAI21X1_185
*1526 MUX2X1_89
*1527 AOI21X1_76
*1528 AOI21X1_26
*1529 AOI21X1_24
*1530 OAI21X1_68
*1531 OAI21X1_345
*1532 AOI21X1_170
*1533 AOI21X1_79
*1534 _1209__bF_buf3
*1535 BUFX4_215
*1536 AOI21X1_52
*1537 MUX2X1_63
*1538 MUX2X1_59
*1539 MUX2X1_55
*1540 AOI21X1_48
*1541 OAI21X1_118
*1542 MUX2X1_51
*1543 MUX2X1_118
*1544 OAI21X1_110
*1545 AOI21X1_128
*1546 MUX2X1_120
*1547 OAI21X1_257
*1548 _1209__bF_buf2
*1549 BUFX4_216
*1550 OAI21X1_225
*1551 AOI21X1_103
*1552 AOI21X1_111
*1553 OAI21X1_201
*1554 OAI21X1_281
*1555 OAI21X1_273
*1556 MUX2X1_122
*1557 AOI21X1_66
*1558 OAI21X1_265
*1559 AOI21X1_95
*1560 AOI21X1_41
*1561 AOI21X1_40
*1562 _1209__bF_buf1
*1563 BUFX4_217
*1564 OAI21X1_161
*1565 AOI21X1_86
*1566 MUX2X1_92
*1567 MUX2X1_46
*1568 OAI21X1_329
*1569 MUX2X1_132
*1570 AOI21X1_160
*1571 AOI21X1_148
*1572 AOI21X1_46
*1573 MUX2X1_128
*1574 OAI21X1_337
*1575 OAI21X1_94
*1576 _1209__bF_buf0
*1577 BUFX4_218
*1578 OAI21X1_153
*1579 AOI21X1_72
*1580 OAI21X1_102
*1581 AOI21X1_68
*1582 OAI21X1_297
*1583 OAI21X1_313
*1584 AOI21X1_156
*1585 OAI21X1_321
*1586 AOI21X1_152
*1587 AOI21X1_140
*1588 OAI21X1_289
*1589 AOI21X1_144
*1590 _1035__bF_buf6
*1591 BUFX4_318
*1592 AOI21X1_606
*1593 AOI21X1_610
*1594 OAI21X1_1480
*1595 OAI21X1_1496
*1596 OAI21X1_1504
*1597 AOI21X1_553
*1598 AOI21X1_551
*1599 OAI21X1_1357
*1600 OAI21X1_1349
*1601 OAI21X1_1297
*1602 MUX2X1_289
*1603 OAI21X1_1305
*1604 _1035__bF_buf5
*1605 BUFX4_319
*1606 OAI21X1_1528
*1607 OAI21X1_1520
*1608 MUX2X1_391
*1609 MUX2X1_393
*1610 MUX2X1_397
*1611 OAI21X1_460
*1612 OAI21X1_452
*1613 NOR2X1_339
*1614 OAI21X1_472
*1615 NOR2X1_308
*1616 AND2X2_6
*1617 OAI21X1_481
*1618 _1035__bF_buf4
*1619 BUFX4_320
*1620 AOI21X1_209
*1621 OAI21X1_1472
*1622 OAI21X1_458
*1623 NOR2X1_305
*1624 OAI21X1_1405
*1625 AOI21X1_571
*1626 OAI21X1_1397
*1627 OAI21X1_1413
*1628 AOI21X1_580
*1629 AOI21X1_577
*1630 OAI21X1_1421
*1631 OAI21X1_474
*1632 _1035__bF_buf3
*1633 BUFX4_321
*1634 OAI21X1_1552
*1635 OAI21X1_1389
*1636 OAI21X1_1373
*1637 AOI21X1_564
*1638 OAI21X1_1381
*1639 AOI21X1_565
*1640 AOI21X1_569
*1641 AOI21X1_562
*1642 MUX2X1_331
*1643 AOI21X1_519
*1644 MUX2X1_268
*1645 OAI21X1_1272
*1646 _1035__bF_buf2
*1647 BUFX4_322
*1648 OAI21X1_1536
*1649 OAI21X1_1544
*1650 AOI21X1_621
*1651 MUX2X1_388
*1652 MUX2X1_324
*1653 AOI21X1_557
*1654 MUX2X1_287
*1655 OAI21X1_1365
*1656 MUX2X1_384
*1657 OAI21X1_1512
*1658 MUX2X1_328
*1659 AOI21X1_614
*1660 _1035__bF_buf1
*1661 BUFX4_323
*1662 OAI21X1_1
*1663 MUX2X1_20
*1664 MUX2X1_8
*1665 AOI21X1_523
*1666 AOI21X1_11
*1667 MUX2X1_12
*1668 AOI21X1_4
*1669 MUX2X1_24
*1670 OAI21X1_17
*1671 AOI21X1_14
*1672 OAI21X1_26
*1673 OAI21X1_34
*1674 _1035__bF_buf0
*1675 BUFX4_324
*1676 MUX2X1_374
*1677 MUX2X1_371
*1678 AOI21X1_598
*1679 AOI21X1_533
*1680 MUX2X1_293
*1681 AOI21X1_537
*1682 MUX2X1_380
*1683 AOI21X1_527
*1684 OAI21X1_1488
*1685 MUX2X1_282
*1686 OAI21X1_1560
*1687 MUX2X1_403
*1688 _1220__bF_buf10
*1689 BUFX4_371
*1690 AOI21X1_57
*1691 AOI21X1_60
*1692 OAI21X1_139
*1693 AOI21X1_64
*1694 MUX2X1_65
*1695 OAI21X1_122
*1696 AOI21X1_54
*1697 MUX2X1_121
*1698 MUX2X1_119
*1699 MUX2X1_168
*1700 AOI21X1_130
*1701 AOI21X1_195
*1702 _1220__bF_buf9
*1703 BUFX4_372
*1704 OAI21X1_378
*1705 MUX2X1_148
*1706 OAI21X1_80
*1707 AOI21X1_34
*1708 MUX2X1_38
*1709 AOI21X1_176
*1710 OAI21X1_357
*1711 OAI21X1_365
*1712 AOI21X1_168
*1713 MUX2X1_140
*1714 OAI21X1_88
*1715 OAI21X1_394
*1716 _1220__bF_buf8
*1717 BUFX4_373
*1718 MUX2X1_73
*1719 MUX2X1_78
*1720 OAI21X1_130
*1721 MUX2X1_61
*1722 MUX2X1_69
*1723 MUX2X1_172
*1724 OAI21X1_410
*1725 OAI21X1_426
*1726 OAI21X1_434
*1727 MUX2X1_144
*1728 OAI21X1_418
*1729 AOI21X1_199
*1730 _1220__bF_buf7
*1731 BUFX4_374
*1732 OAI21X1_205
*1733 AOI21X1_101
*1734 OAI21X1_213
*1735 OAI21X1_285
*1736 OAI21X1_277
*1737 OAI21X1_221
*1738 OAI21X1_197
*1739 MUX2X1_57
*1740 AOI21X1_206
*1741 AOI21X1_202
*1742 NAND2X1_99
*1743 MUX2X1_101
*1744 _1220__bF_buf6
*1745 BUFX4_375
*1746 OAI21X1_374
*1747 OAI21X1_370
*1748 MUX2X1_160
*1749 MUX2X1_164
*1750 OAI21X1_402
*1751 AOI21X1_191
*1752 MUX2X1_152
*1753 MUX2X1_156
*1754 AOI21X1_187
*1755 AOI21X1_180
*1756 AOI21X1_183
*1757 OAI21X1_385
*1758 _1220__bF_buf5
*1759 BUFX4_376
*1760 AOI21X1_39
*1761 MUX2X1_44
*1762 AOI21X1_112
*1763 AOI21X1_89
*1764 MUX2X1_107